@<TRIPOS>MOLECULE
MMT
 4112  1632     1     0     1
SMALL
USER_CHARGES
@<TRIPOS>ATOM
  1 Al          4.880000    1.920000    0.000000 Al         1 MOL        1.5750 ****
  2 Al          4.880000   35.490000    0.000000 Al         1 MOL        1.5750 ****
  3 Al          7.520000    6.350000    0.000000 Al         1 MOL        1.5750 ****
  4 Al          7.520000    3.250000    0.000000 Al         1 MOL        1.5750 ****
  5 Si          3.120000    1.900000    2.730000 Si         1 MOL        2.1000 ****
  6 Si          0.480000    3.320000    2.730000 Si         1 MOL        2.1000 ****
  7 Si          0.480000    6.210000    2.730000 Si         1 MOL        2.1000 ****
  8 Si          3.120000    7.720000    2.730000 Si         1 MOL        2.1000 ****
  9 Si          1.360000    7.680000   38.850000 Si         1 MOL        2.1000 ****
 10 Si          4.000000    6.250000   38.850000 Si         1 MOL        2.1000 ****
 11 Si          4.000000    3.330000   38.850000 Si         1 MOL        2.1000 ****
 12 Si          1.360000    1.930000   38.850000 Si         1 MOL        2.1000 ****
 13  H          1.430000    0.550000    0.870000  H         1 MOL        0.4250 ****
 14  H          4.010000    4.510000    0.700000  H         1 MOL        0.4250 ****
 15  H          3.050000    9.150000   40.740000  H         1 MOL        0.4250 ****
 16  H          0.510000    4.820000   41.000000  H         1 MOL        0.4250 ****
 17  O          3.120000    0.410000    3.280000  O         1 MOL       -1.0500 ****
 18  O          1.800000    2.600000    3.280000  O         1 MOL       -1.0500 ****
 19  O          4.440000    2.650000    3.280000  O         1 MOL       -1.0500 ****
 20 Oh          0.480000    0.380000    1.060000  O         1 MOL       -0.9500 ****
 21Omg          3.120000    1.970000    1.060000  O         1 MOL       -1.1808 ****
 22Omg          0.480000    3.240000    1.060000  O         1 MOL       -1.1808 ****
 23  O          0.480000    4.780000    3.280000  O         1 MOL       -1.0500 ****
 24  O          4.440000    6.980000    3.280000  O         1 MOL       -1.0500 ****
 25  O          1.800000    6.970000    3.280000  O         1 MOL       -1.0500 ****
 26Ohmg          3.120000    4.790000    1.060000  O         1 MOL       -1.0809 ****
 27  O          0.480000    6.400000    1.060000  O         1 MOL       -1.0500 ****
 28  O          3.120000    7.640000    1.060000  O         1 MOL       -1.0500 ****
 29  O          1.360000    9.170000   38.300000  O         1 MOL       -1.0500 ****
 30  O          2.680000    6.920000   38.300000  O         1 MOL       -1.0500 ****
 31  O          0.040000    7.030000   38.300000  O         1 MOL       -1.0500 ****
 32 Oh          4.000000    9.040000   40.520000  O         1 MOL       -0.9500 ****
 33  O          1.360000    7.560000   40.520000  O         1 MOL       -1.0500 ****
 34  O          4.000000    6.320000   40.520000  O         1 MOL       -1.0500 ****
 35  O          4.000000    4.770000   38.300000  O         1 MOL       -1.0500 ****
 36  O          0.040000    2.590000   38.300000  O         1 MOL       -1.0500 ****
 37  O          2.680000    2.620000   38.300000  O         1 MOL       -1.0500 ****
 38Ohmg          1.360000    4.800000   40.520000  O         1 MOL       -1.0809 ****
 39Omg          4.000000    3.380000   40.520000  O         1 MOL       -1.1808 ****
 40Omg          1.360000    2.070000   40.520000  O         1 MOL       -1.1808 ****
 41Mgo         10.160000    1.920000    0.000000 Mg         1 MOL        1.3600 ****
 42 Al         10.160000   35.490000    0.000000 Al         1 MOL        1.5750 ****
 43 Al         12.800000    6.350000    0.000000 Al         1 MOL        1.5750 ****
 44 Al         12.800000    3.250000    0.000000 Al         1 MOL        1.5750 ****
 45 Si          8.400000    1.900000    2.730000 Si         1 MOL        2.1000 ****
 46 Si          5.760000    3.320000    2.730000 Si         1 MOL        2.1000 ****
 47 Si          5.760000    6.210000    2.730000 Si         1 MOL        2.1000 ****
 48 Si          8.400000    7.720000    2.730000 Si         1 MOL        2.1000 ****
 49 Si          6.640000    7.680000   38.850000 Si         1 MOL        2.1000 ****
 50 Si          9.280000    6.250000   38.850000 Si         1 MOL        2.1000 ****
 51 Si          9.280000    3.330000   38.850000 Si         1 MOL        2.1000 ****
 52 Si          6.640000    1.930000   38.850000 Si         1 MOL        2.1000 ****
 53  H          6.710000    0.550000    0.870000  H         1 MOL        0.4250 ****
 54  H          9.290000    4.510000    0.700000  H         1 MOL        0.4250 ****
 55  H          8.330000    9.150000   40.740000  H         1 MOL        0.4250 ****
 56  H          5.790000    4.820000   41.000000  H         1 MOL        0.4250 ****
 57  O          8.400000    0.410000    3.280000  O         1 MOL       -1.0500 ****
 58  O          7.080000    2.600000    3.280000  O         1 MOL       -1.0500 ****
 59  O          9.720000    2.650000    3.280000  O         1 MOL       -1.0500 ****
 60 Oh          5.760000    0.380000    1.060000  O         1 MOL       -0.9500 ****
 61Omg          8.400000    1.970000    1.060000  O         1 MOL       -1.1808 ****
 62  O          5.760000    3.240000    1.060000  O         1 MOL       -1.0500 ****
 63  O          5.760000    4.780000    3.280000  O         1 MOL       -1.0500 ****
 64  O          9.720000    6.980000    3.280000  O         1 MOL       -1.0500 ****
 65  O          7.080000    6.970000    3.280000  O         1 MOL       -1.0500 ****
 66 Oh          8.400000    4.790000    1.060000  O         1 MOL       -0.9500 ****
 67  O          5.760000    6.400000    1.060000  O         1 MOL       -1.0500 ****
 68  O          8.400000    7.640000    1.060000  O         1 MOL       -1.0500 ****
 69  O          6.640000    9.170000   38.300000  O         1 MOL       -1.0500 ****
 70  O          7.960000    6.920000   38.300000  O         1 MOL       -1.0500 ****
 71  O          5.320000    7.030000   38.300000  O         1 MOL       -1.0500 ****
 72 Oh          9.280000    9.040000   40.520000  O         1 MOL       -0.9500 ****
 73  O          6.640000    7.560000   40.520000  O         1 MOL       -1.0500 ****
 74  O          9.280000    6.320000   40.520000  O         1 MOL       -1.0500 ****
 75  O          9.280000    4.770000   38.300000  O         1 MOL       -1.0500 ****
 76  O          5.320000    2.590000   38.300000  O         1 MOL       -1.0500 ****
 77  O          7.960000    2.620000   38.300000  O         1 MOL       -1.0500 ****
 78 Oh          6.640000    4.800000   40.520000  O         1 MOL       -0.9500 ****
 79Omg          9.280000    3.380000   40.520000  O         1 MOL       -1.1808 ****
 80  O          6.640000    2.070000   40.520000  O         1 MOL       -1.0500 ****
 81 Al         15.440000    1.920000    0.000000 Al         1 MOL        1.5750 ****
 82 Al         15.440000   35.490000    0.000000 Al         1 MOL        1.5750 ****
 83 Al         18.080000    6.350000    0.000000 Al         1 MOL        1.5750 ****
 84 Al         18.080000    3.250000    0.000000 Al         1 MOL        1.5750 ****
 85 Si         13.680000    1.900000    2.730000 Si         1 MOL        2.1000 ****
 86 Si         11.040000    3.320000    2.730000 Si         1 MOL        2.1000 ****
 87 Si         11.040000    6.210000    2.730000 Si         1 MOL        2.1000 ****
 88 Si         13.680000    7.720000    2.730000 Si         1 MOL        2.1000 ****
 89 Si         11.920000    7.680000   38.850000 Si         1 MOL        2.1000 ****
 90 Si         14.560000    6.250000   38.850000 Si         1 MOL        2.1000 ****
 91 Si         14.560000    3.330000   38.850000 Si         1 MOL        2.1000 ****
 92 Si         11.920000    1.930000   38.850000 Si         1 MOL        2.1000 ****
 93  H         11.990000    0.550000    0.870000  H         1 MOL        0.4250 ****
 94  H         14.570000    4.510000    0.700000  H         1 MOL        0.4250 ****
 95  H         13.610000    9.150000   40.740000  H         1 MOL        0.4250 ****
 96  H         11.070000    4.820000   41.000000  H         1 MOL        0.4250 ****
 97  O         13.680000    0.410000    3.280000  O         1 MOL       -1.0500 ****
 98  O         12.360000    2.600000    3.280000  O         1 MOL       -1.0500 ****
 99  O         15.000000    2.650000    3.280000  O         1 MOL       -1.0500 ****
100Ohmg         11.040000    0.380000    1.060000  O         1 MOL       -1.0809 ****
101  O         13.680000    1.970000    1.060000  O         1 MOL       -1.0500 ****
102Omg         11.040000    3.240000    1.060000  O         1 MOL       -1.1808 ****
103  O         11.040000    4.780000    3.280000  O         1 MOL       -1.0500 ****
104  O         15.000000    6.980000    3.280000  O         1 MOL       -1.0500 ****
105  O         12.360000    6.970000    3.280000  O         1 MOL       -1.0500 ****
106 Oh         13.680000    4.790000    1.060000  O         1 MOL       -0.9500 ****
107  O         11.040000    6.400000    1.060000  O         1 MOL       -1.0500 ****
108Omg         13.680000    7.640000    1.060000  O         1 MOL       -1.1808 ****
109  O         11.920000    9.170000   38.300000  O         1 MOL       -1.0500 ****
110  O         13.240000    6.920000   38.300000  O         1 MOL       -1.0500 ****
111  O         10.600000    7.030000   38.300000  O         1 MOL       -1.0500 ****
112Ohmg         14.560000    9.040000   40.520000  O         1 MOL       -1.0809 ****
113  O         11.920000    7.560000   40.520000  O         1 MOL       -1.0500 ****
114Omg         14.560000    6.320000   40.520000  O         1 MOL       -1.1808 ****
115  O         14.560000    4.770000   38.300000  O         1 MOL       -1.0500 ****
116  O         10.600000    2.590000   38.300000  O         1 MOL       -1.0500 ****
117  O         13.240000    2.620000   38.300000  O         1 MOL       -1.0500 ****
118 Oh         11.920000    4.800000   40.520000  O         1 MOL       -0.9500 ****
119  O         14.560000    3.380000   40.520000  O         1 MOL       -1.0500 ****
120Omg         11.920000    2.070000   40.520000  O         1 MOL       -1.1808 ****
121 Al         20.720000    1.920000    0.000000 Al         1 MOL        1.5750 ****
122 Al         20.720000   35.490000    0.000000 Al         1 MOL        1.5750 ****
123 Al         23.360000    6.350000    0.000000 Al         1 MOL        1.5750 ****
124 Al         23.360000    3.250000    0.000000 Al         1 MOL        1.5750 ****
125 Si         18.960000    1.900000    2.730000 Si         1 MOL        2.1000 ****
126 Si         16.320000    3.320000    2.730000 Si         1 MOL        2.1000 ****
127 Si         16.320000    6.210000    2.730000 Si         1 MOL        2.1000 ****
128 Si         18.960000    7.720000    2.730000 Si         1 MOL        2.1000 ****
129 Si         17.200000    7.680000   38.850000 Si         1 MOL        2.1000 ****
130 Si         19.840000    6.250000   38.850000 Si         1 MOL        2.1000 ****
131 Si         19.840000    3.330000   38.850000 Si         1 MOL        2.1000 ****
132 Si         17.200000    1.930000   38.850000 Si         1 MOL        2.1000 ****
133  H         17.270000    0.550000    0.870000  H         1 MOL        0.4250 ****
134  H         19.850000    4.510000    0.700000  H         1 MOL        0.4250 ****
135  H         18.890000    9.150000   40.740000  H         1 MOL        0.4250 ****
136  H         16.350000    4.820000   41.000000  H         1 MOL        0.4250 ****
137  O         18.960000    0.410000    3.280000  O         1 MOL       -1.0500 ****
138  O         17.640000    2.600000    3.280000  O         1 MOL       -1.0500 ****
139  O         20.280000    2.650000    3.280000  O         1 MOL       -1.0500 ****
140 Oh         16.320000    0.380000    1.060000  O         1 MOL       -0.9500 ****
141  O         18.960000    1.970000    1.060000  O         1 MOL       -1.0500 ****
142  O         16.320000    3.240000    1.060000  O         1 MOL       -1.0500 ****
143  O         16.320000    4.780000    3.280000  O         1 MOL       -1.0500 ****
144  O         20.280000    6.980000    3.280000  O         1 MOL       -1.0500 ****
145  O         17.640000    6.970000    3.280000  O         1 MOL       -1.0500 ****
146 Oh         18.960000    4.790000    1.060000  O         1 MOL       -0.9500 ****
147Omg         16.320000    6.400000    1.060000  O         1 MOL       -1.1808 ****
148  O         18.960000    7.640000    1.060000  O         1 MOL       -1.0500 ****
149  O         17.200000    9.170000   38.300000  O         1 MOL       -1.0500 ****
150  O         18.520000    6.920000   38.300000  O         1 MOL       -1.0500 ****
151  O         15.880000    7.030000   38.300000  O         1 MOL       -1.0500 ****
152 Oh         19.840000    9.040000   40.520000  O         1 MOL       -0.9500 ****
153Omg         17.200000    7.560000   40.520000  O         1 MOL       -1.1808 ****
154  O         19.840000    6.320000   40.520000  O         1 MOL       -1.0500 ****
155  O         19.840000    4.770000   38.300000  O         1 MOL       -1.0500 ****
156  O         15.880000    2.590000   38.300000  O         1 MOL       -1.0500 ****
157  O         18.520000    2.620000   38.300000  O         1 MOL       -1.0500 ****
158 Oh         17.200000    4.800000   40.520000  O         1 MOL       -0.9500 ****
159  O         19.840000    3.380000   40.520000  O         1 MOL       -1.0500 ****
160  O         17.200000    2.070000   40.520000  O         1 MOL       -1.0500 ****
161 Al         26.000000    1.920000    0.000000 Al         1 MOL        1.5750 ****
162Mgo         26.000000   35.490000    0.000000 Mg         1 MOL        1.3600 ****
163Mgo         28.640000    6.350000    0.000000 Mg         1 MOL        1.3600 ****
164 Al         28.640000    3.250000    0.000000 Al         1 MOL        1.5750 ****
165 Si         24.240000    1.900000    2.730000 Si         1 MOL        2.1000 ****
166 Si         21.600000    3.320000    2.730000 Si         1 MOL        2.1000 ****
167 Si         21.600000    6.210000    2.730000 Si         1 MOL        2.1000 ****
168 Si         24.240000    7.720000    2.730000 Si         1 MOL        2.1000 ****
169 Si         22.480000    7.680000   38.850000 Si         1 MOL        2.1000 ****
170 Si         25.120000    6.250000   38.850000 Si         1 MOL        2.1000 ****
171 Si         25.120000    3.330000   38.850000 Si         1 MOL        2.1000 ****
172 Si         22.480000    1.930000   38.850000 Si         1 MOL        2.1000 ****
173  H         22.550000    0.550000    0.870000  H         1 MOL        0.4250 ****
174  H         25.130000    4.510000    0.700000  H         1 MOL        0.4250 ****
175  H         24.170000    9.150000   40.740000  H         1 MOL        0.4250 ****
176  H         21.630000    4.820000   41.000000  H         1 MOL        0.4250 ****
177  O         24.240000    0.410000    3.280000  O         1 MOL       -1.0500 ****
178  O         22.920000    2.600000    3.280000  O         1 MOL       -1.0500 ****
179  O         25.560000    2.650000    3.280000  O         1 MOL       -1.0500 ****
180 Oh         21.600000    0.380000    1.060000  O         1 MOL       -0.9500 ****
181  O         24.240000    1.970000    1.060000  O         1 MOL       -1.0500 ****
182  O         21.600000    3.240000    1.060000  O         1 MOL       -1.0500 ****
183  O         21.600000    4.780000    3.280000  O         1 MOL       -1.0500 ****
184  O         25.560000    6.980000    3.280000  O         1 MOL       -1.0500 ****
185  O         22.920000    6.970000    3.280000  O         1 MOL       -1.0500 ****
186 Oh         24.240000    4.790000    1.060000  O         1 MOL       -0.9500 ****
187  O         21.600000    6.400000    1.060000  O         1 MOL       -1.0500 ****
188  O         24.240000    7.640000    1.060000  O         1 MOL       -1.0500 ****
189  O         22.480000    9.170000   38.300000  O         1 MOL       -1.0500 ****
190  O         23.800000    6.920000   38.300000  O         1 MOL       -1.0500 ****
191  O         21.160000    7.030000   38.300000  O         1 MOL       -1.0500 ****
192 Oh         25.120000    9.040000   40.520000  O         1 MOL       -0.9500 ****
193  O         22.480000    7.560000   40.520000  O         1 MOL       -1.0500 ****
194  O         25.120000    6.320000   40.520000  O         1 MOL       -1.0500 ****
195  O         25.120000    4.770000   38.300000  O         1 MOL       -1.0500 ****
196  O         21.160000    2.590000   38.300000  O         1 MOL       -1.0500 ****
197  O         23.800000    2.620000   38.300000  O         1 MOL       -1.0500 ****
198 Oh         22.480000    4.800000   40.520000  O         1 MOL       -0.9500 ****
199  O         25.120000    3.380000   40.520000  O         1 MOL       -1.0500 ****
200  O         22.480000    2.070000   40.520000  O         1 MOL       -1.0500 ****
201 Al         31.280000    1.920000    0.000000 Al         1 MOL        1.5750 ****
202 Al         31.280000   35.490000    0.000000 Al         1 MOL        1.5750 ****
203 Al          2.240000    6.350000    0.000000 Al         1 MOL        1.5750 ****
204Mgo          2.240000    3.250000    0.000000 Mg         1 MOL        1.3600 ****
205 Si         29.520000    1.900000    2.730000 Si         1 MOL        2.1000 ****
206 Si         26.880000    3.320000    2.730000 Si         1 MOL        2.1000 ****
207 Si         26.880000    6.210000    2.730000 Si         1 MOL        2.1000 ****
208 Si         29.520000    7.720000    2.730000 Si         1 MOL        2.1000 ****
209 Si         27.760000    7.680000   38.850000 Si         1 MOL        2.1000 ****
210 Si         30.400000    6.250000   38.850000 Si         1 MOL        2.1000 ****
211 Si         30.400000    3.330000   38.850000 Si         1 MOL        2.1000 ****
212 Si         27.760000    1.930000   38.850000 Si         1 MOL        2.1000 ****
213  H         27.830000    0.550000    0.870000  H         1 MOL        0.4250 ****
214  H         30.410000    4.510000    0.700000  H         1 MOL        0.4250 ****
215  H         29.450000    9.150000   40.740000  H         1 MOL        0.4250 ****
216  H         26.910000    4.820000   41.000000  H         1 MOL        0.4250 ****
217  O         29.520000    0.410000    3.280000  O         1 MOL       -1.0500 ****
218  O         28.200000    2.600000    3.280000  O         1 MOL       -1.0500 ****
219  O         30.840000    2.650000    3.280000  O         1 MOL       -1.0500 ****
220Ohmg         26.880000    0.380000    1.060000  O         1 MOL       -1.0809 ****
221  O         29.520000    1.970000    1.060000  O         1 MOL       -1.0500 ****
222  O         26.880000    3.240000    1.060000  O         1 MOL       -1.0500 ****
223  O         26.880000    4.780000    3.280000  O         1 MOL       -1.0500 ****
224  O         30.840000    6.980000    3.280000  O         1 MOL       -1.0500 ****
225  O         28.200000    6.970000    3.280000  O         1 MOL       -1.0500 ****
226Ohmg         29.520000    4.790000    1.060000  O         1 MOL       -1.0809 ****
227Omg         26.880000    6.400000    1.060000  O         1 MOL       -1.1808 ****
228Omg         29.520000    7.640000    1.060000  O         1 MOL       -1.1808 ****
229  O         27.760000    9.170000   38.300000  O         1 MOL       -1.0500 ****
230  O         29.080000    6.920000   38.300000  O         1 MOL       -1.0500 ****
231  O         26.440000    7.030000   38.300000  O         1 MOL       -1.0500 ****
232 Oh         30.400000    9.040000   40.520000  O         1 MOL       -0.9500 ****
233Omg         27.760000    7.560000   40.520000  O         1 MOL       -1.1808 ****
234Omg         30.400000    6.320000   40.520000  O         1 MOL       -1.1808 ****
235  O         30.400000    4.770000   38.300000  O         1 MOL       -1.0500 ****
236  O         26.440000    2.590000   38.300000  O         1 MOL       -1.0500 ****
237  O         29.080000    2.620000   38.300000  O         1 MOL       -1.0500 ****
238Ohmg         27.760000    4.800000   40.520000  O         1 MOL       -1.0809 ****
239  O         30.400000    3.380000   40.520000  O         1 MOL       -1.0500 ****
240  O         27.760000    2.070000   40.520000  O         1 MOL       -1.0500 ****
241 Al          4.880000   11.060000    0.000000 Al         1 MOL        1.5750 ****
242 Al          4.880000    8.070000    0.000000 Al         1 MOL        1.5750 ****
243Mgo          7.520000   15.490000    0.000000 Mg         1 MOL        1.3600 ****
244 Al          7.520000   12.390000    0.000000 Al         1 MOL        1.5750 ****
245 Si          3.120000   11.040000    2.730000 Si         1 MOL        2.1000 ****
246 Si          0.480000   12.460000    2.730000 Si         1 MOL        2.1000 ****
247 Si          0.480000   15.350000    2.730000 Si         1 MOL        2.1000 ****
248 Si          3.120000   16.860000    2.730000 Si         1 MOL        2.1000 ****
249 Si          1.360000   16.820000   38.850000 Si         1 MOL        2.1000 ****
250 Si          4.000000   15.390000   38.850000 Si         1 MOL        2.1000 ****
251 Si          4.000000   12.470000   38.850000 Si         1 MOL        2.1000 ****
252 Si          1.360000   11.070000   38.850000 Si         1 MOL        2.1000 ****
253  H          1.430000    9.690000    0.870000  H         1 MOL        0.4250 ****
254  H          4.010000   13.650000    0.700000  H         1 MOL        0.4250 ****
255  H          3.050000   18.290000   40.740000  H         1 MOL        0.4250 ****
256  H          0.510000   13.960000   41.000000  H         1 MOL        0.4250 ****
257  O          3.120000    9.550000    3.280000  O         1 MOL       -1.0500 ****
258  O          1.800000   11.740000    3.280000  O         1 MOL       -1.0500 ****
259  O          4.440000   11.790000    3.280000  O         1 MOL       -1.0500 ****
260 Oh          0.480000    9.520000    1.060000  O         1 MOL       -0.9500 ****
261Omg          3.120000   11.110000    1.060000  O         1 MOL       -1.1808 ****
262Omg          0.480000   12.380000    1.060000  O         1 MOL       -1.1808 ****
263  O          0.480000   13.920000    3.280000  O         1 MOL       -1.0500 ****
264  O          4.440000   16.120000    3.280000  O         1 MOL       -1.0500 ****
265  O          1.800000   16.110000    3.280000  O         1 MOL       -1.0500 ****
266Ohmg          3.120000   13.930000    1.060000  O         1 MOL       -1.0809 ****
267  O          0.480000   15.540000    1.060000  O         1 MOL       -1.0500 ****
268  O          3.120000   16.780000    1.060000  O         1 MOL       -1.0500 ****
269  O          1.360000   18.310000   38.300000  O         1 MOL       -1.0500 ****
270  O          2.680000   16.060000   38.300000  O         1 MOL       -1.0500 ****
271  O          0.040000   16.170000   38.300000  O         1 MOL       -1.0500 ****
272 Oh          4.000000   18.180000   40.520000  O         1 MOL       -0.9500 ****
273  O          1.360000   16.700000   40.520000  O         1 MOL       -1.0500 ****
274  O          4.000000   15.460000   40.520000  O         1 MOL       -1.0500 ****
275  O          4.000000   13.910000   38.300000  O         1 MOL       -1.0500 ****
276  O          0.040000   11.730000   38.300000  O         1 MOL       -1.0500 ****
277  O          2.680000   11.760000   38.300000  O         1 MOL       -1.0500 ****
278Ohmg          1.360000   13.940000   40.520000  O         1 MOL       -1.0809 ****
279Omg          4.000000   12.520000   40.520000  O         1 MOL       -1.1808 ****
280Omg          1.360000   11.210000   40.520000  O         1 MOL       -1.1808 ****
281 Al         10.160000   11.060000    0.000000 Al         1 MOL        1.5750 ****
282 Al         10.160000    8.070000    0.000000 Al         1 MOL        1.5750 ****
283 Al         12.800000   15.490000    0.000000 Al         1 MOL        1.5750 ****
284 Al         12.800000   12.390000    0.000000 Al         1 MOL        1.5750 ****
285 Si          8.400000   11.040000    2.730000 Si         1 MOL        2.1000 ****
286 Si          5.760000   12.460000    2.730000 Si         1 MOL        2.1000 ****
287 Si          5.760000   15.350000    2.730000 Si         1 MOL        2.1000 ****
288 Si          8.400000   16.860000    2.730000 Si         1 MOL        2.1000 ****
289 Si          6.640000   16.820000   38.850000 Si         1 MOL        2.1000 ****
290 Si          9.280000   15.390000   38.850000 Si         1 MOL        2.1000 ****
291 Si          9.280000   12.470000   38.850000 Si         1 MOL        2.1000 ****
292 Si          6.640000   11.070000   38.850000 Si         1 MOL        2.1000 ****
293  H          6.710000    9.690000    0.870000  H         1 MOL        0.4250 ****
294  H          9.290000   13.650000    0.700000  H         1 MOL        0.4250 ****
295  H          8.330000   18.290000   40.740000  H         1 MOL        0.4250 ****
296  H          5.790000   13.960000   41.000000  H         1 MOL        0.4250 ****
297  O          8.400000    9.550000    3.280000  O         1 MOL       -1.0500 ****
298  O          7.080000   11.740000    3.280000  O         1 MOL       -1.0500 ****
299  O          9.720000   11.790000    3.280000  O         1 MOL       -1.0500 ****
300 Oh          5.760000    9.520000    1.060000  O         1 MOL       -0.9500 ****
301  O          8.400000   11.110000    1.060000  O         1 MOL       -1.0500 ****
302  O          5.760000   12.380000    1.060000  O         1 MOL       -1.0500 ****
303  O          5.760000   13.920000    3.280000  O         1 MOL       -1.0500 ****
304  O          9.720000   16.120000    3.280000  O         1 MOL       -1.0500 ****
305  O          7.080000   16.110000    3.280000  O         1 MOL       -1.0500 ****
306Ohmg          8.400000   13.930000    1.060000  O         1 MOL       -1.0809 ****
307Omg          5.760000   15.540000    1.060000  O         1 MOL       -1.1808 ****
308Omg          8.400000   16.780000    1.060000  O         1 MOL       -1.1808 ****
309  O          6.640000   18.310000   38.300000  O         1 MOL       -1.0500 ****
310  O          7.960000   16.060000   38.300000  O         1 MOL       -1.0500 ****
311  O          5.320000   16.170000   38.300000  O         1 MOL       -1.0500 ****
312 Oh          9.280000   18.180000   40.520000  O         1 MOL       -0.9500 ****
313Omg          6.640000   16.700000   40.520000  O         1 MOL       -1.1808 ****
314Omg          9.280000   15.460000   40.520000  O         1 MOL       -1.1808 ****
315  O          9.280000   13.910000   38.300000  O         1 MOL       -1.0500 ****
316  O          5.320000   11.730000   38.300000  O         1 MOL       -1.0500 ****
317  O          7.960000   11.760000   38.300000  O         1 MOL       -1.0500 ****
318Ohmg          6.640000   13.940000   40.520000  O         1 MOL       -1.0809 ****
319  O          9.280000   12.520000   40.520000  O         1 MOL       -1.0500 ****
320  O          6.640000   11.210000   40.520000  O         1 MOL       -1.0500 ****
321 Al         15.440000   11.060000    0.000000 Al         1 MOL        1.5750 ****
322Mgo         15.440000    8.070000    0.000000 Mg         1 MOL        1.3600 ****
323 Al         18.080000   15.490000    0.000000 Al         1 MOL        1.5750 ****
324 Al         18.080000   12.390000    0.000000 Al         1 MOL        1.5750 ****
325 Si         13.680000   11.040000    2.730000 Si         1 MOL        2.1000 ****
326 Si         11.040000   12.460000    2.730000 Si         1 MOL        2.1000 ****
327 Si         11.040000   15.350000    2.730000 Si         1 MOL        2.1000 ****
328 Si         13.680000   16.860000    2.730000 Si         1 MOL        2.1000 ****
329 Si         11.920000   16.820000   38.850000 Si         1 MOL        2.1000 ****
330 Si         14.560000   15.390000   38.850000 Si         1 MOL        2.1000 ****
331 Si         14.560000   12.470000   38.850000 Si         1 MOL        2.1000 ****
332 Si         11.920000   11.070000   38.850000 Si         1 MOL        2.1000 ****
333  H         11.990000    9.690000    0.870000  H         1 MOL        0.4250 ****
334  H         14.570000   13.650000    0.700000  H         1 MOL        0.4250 ****
335  H         13.610000   18.290000   40.740000  H         1 MOL        0.4250 ****
336  H         11.070000   13.960000   41.000000  H         1 MOL        0.4250 ****
337  O         13.680000    9.550000    3.280000  O         1 MOL       -1.0500 ****
338  O         12.360000   11.740000    3.280000  O         1 MOL       -1.0500 ****
339  O         15.000000   11.790000    3.280000  O         1 MOL       -1.0500 ****
340 Oh         11.040000    9.520000    1.060000  O         1 MOL       -0.9500 ****
341  O         13.680000   11.110000    1.060000  O         1 MOL       -1.0500 ****
342  O         11.040000   12.380000    1.060000  O         1 MOL       -1.0500 ****
343  O         11.040000   13.920000    3.280000  O         1 MOL       -1.0500 ****
344  O         15.000000   16.120000    3.280000  O         1 MOL       -1.0500 ****
345  O         12.360000   16.110000    3.280000  O         1 MOL       -1.0500 ****
346 Oh         13.680000   13.930000    1.060000  O         1 MOL       -0.9500 ****
347  O         11.040000   15.540000    1.060000  O         1 MOL       -1.0500 ****
348  O         13.680000   16.780000    1.060000  O         1 MOL       -1.0500 ****
349  O         11.920000   18.310000   38.300000  O         1 MOL       -1.0500 ****
350  O         13.240000   16.060000   38.300000  O         1 MOL       -1.0500 ****
351  O         10.600000   16.170000   38.300000  O         1 MOL       -1.0500 ****
352 Oh         14.560000   18.180000   40.520000  O         1 MOL       -0.9500 ****
353  O         11.920000   16.700000   40.520000  O         1 MOL       -1.0500 ****
354  O         14.560000   15.460000   40.520000  O         1 MOL       -1.0500 ****
355  O         14.560000   13.910000   38.300000  O         1 MOL       -1.0500 ****
356  O         10.600000   11.730000   38.300000  O         1 MOL       -1.0500 ****
357  O         13.240000   11.760000   38.300000  O         1 MOL       -1.0500 ****
358 Oh         11.920000   13.940000   40.520000  O         1 MOL       -0.9500 ****
359  O         14.560000   12.520000   40.520000  O         1 MOL       -1.0500 ****
360  O         11.920000   11.210000   40.520000  O         1 MOL       -1.0500 ****
361 Al         20.720000   11.060000    0.000000 Al         1 MOL        1.5750 ****
362 Al         20.720000    8.070000    0.000000 Al         1 MOL        1.5750 ****
363Mgo         23.360000   15.490000    0.000000 Mg         1 MOL        1.3600 ****
364 Al         23.360000   12.390000    0.000000 Al         1 MOL        1.5750 ****
365 Si         18.960000   11.040000    2.730000 Si         1 MOL        2.1000 ****
366 Si         16.320000   12.460000    2.730000 Si         1 MOL        2.1000 ****
367 Si         16.320000   15.350000    2.730000 Si         1 MOL        2.1000 ****
368 Si         18.960000   16.860000    2.730000 Si         1 MOL        2.1000 ****
369 Si         17.200000   16.820000   38.850000 Si         1 MOL        2.1000 ****
370 Si         19.840000   15.390000   38.850000 Si         1 MOL        2.1000 ****
371 Si         19.840000   12.470000   38.850000 Si         1 MOL        2.1000 ****
372 Si         17.200000   11.070000   38.850000 Si         1 MOL        2.1000 ****
373  H         17.270000    9.690000    0.870000  H         1 MOL        0.4250 ****
374  H         19.850000   13.650000    0.700000  H         1 MOL        0.4250 ****
375  H         18.890000   18.290000   40.740000  H         1 MOL        0.4250 ****
376  H         16.350000   13.960000   41.000000  H         1 MOL        0.4250 ****
377  O         18.960000    9.550000    3.280000  O         1 MOL       -1.0500 ****
378  O         17.640000   11.740000    3.280000  O         1 MOL       -1.0500 ****
379  O         20.280000   11.790000    3.280000  O         1 MOL       -1.0500 ****
380Ohmg         16.320000    9.520000    1.060000  O         1 MOL       -1.0809 ****
381  O         18.960000   11.110000    1.060000  O         1 MOL       -1.0500 ****
382  O         16.320000   12.380000    1.060000  O         1 MOL       -1.0500 ****
383  O         16.320000   13.920000    3.280000  O         1 MOL       -1.0500 ****
384  O         20.280000   16.120000    3.280000  O         1 MOL       -1.0500 ****
385  O         17.640000   16.110000    3.280000  O         1 MOL       -1.0500 ****
386 Oh         18.960000   13.930000    1.060000  O         1 MOL       -0.9500 ****
387  O         16.320000   15.540000    1.060000  O         1 MOL       -1.0500 ****
388  O         18.960000   16.780000    1.060000  O         1 MOL       -1.0500 ****
389  O         17.200000   18.310000   38.300000  O         1 MOL       -1.0500 ****
390  O         18.520000   16.060000   38.300000  O         1 MOL       -1.0500 ****
391  O         15.880000   16.170000   38.300000  O         1 MOL       -1.0500 ****
392 Oh         19.840000   18.180000   40.520000  O         1 MOL       -0.9500 ****
393  O         17.200000   16.700000   40.520000  O         1 MOL       -1.0500 ****
394  O         19.840000   15.460000   40.520000  O         1 MOL       -1.0500 ****
395  O         19.840000   13.910000   38.300000  O         1 MOL       -1.0500 ****
396  O         15.880000   11.730000   38.300000  O         1 MOL       -1.0500 ****
397  O         18.520000   11.760000   38.300000  O         1 MOL       -1.0500 ****
398 Oh         17.200000   13.940000   40.520000  O         1 MOL       -0.9500 ****
399  O         19.840000   12.520000   40.520000  O         1 MOL       -1.0500 ****
400  O         17.200000   11.210000   40.520000  O         1 MOL       -1.0500 ****
401 Al         26.000000   11.060000    0.000000 Al         1 MOL        1.5750 ****
402 Al         26.000000    8.070000    0.000000 Al         1 MOL        1.5750 ****
403 Al         28.640000   15.490000    0.000000 Al         1 MOL        1.5750 ****
404 Al         28.640000   12.390000    0.000000 Al         1 MOL        1.5750 ****
405 Si         24.240000   11.040000    2.730000 Si         1 MOL        2.1000 ****
406 Si         21.600000   12.460000    2.730000 Si         1 MOL        2.1000 ****
407 Si         21.600000   15.350000    2.730000 Si         1 MOL        2.1000 ****
408 Si         24.240000   16.860000    2.730000 Si         1 MOL        2.1000 ****
409 Si         22.480000   16.820000   38.850000 Si         1 MOL        2.1000 ****
410 Si         25.120000   15.390000   38.850000 Si         1 MOL        2.1000 ****
411 Si         25.120000   12.470000   38.850000 Si         1 MOL        2.1000 ****
412 Si         22.480000   11.070000   38.850000 Si         1 MOL        2.1000 ****
413  H         22.550000    9.690000    0.870000  H         1 MOL        0.4250 ****
414  H         25.130000   13.650000    0.700000  H         1 MOL        0.4250 ****
415  H         24.170000   18.290000   40.740000  H         1 MOL        0.4250 ****
416  H         21.630000   13.960000   41.000000  H         1 MOL        0.4250 ****
417  O         24.240000    9.550000    3.280000  O         1 MOL       -1.0500 ****
418  O         22.920000   11.740000    3.280000  O         1 MOL       -1.0500 ****
419  O         25.560000   11.790000    3.280000  O         1 MOL       -1.0500 ****
420 Oh         21.600000    9.520000    1.060000  O         1 MOL       -0.9500 ****
421  O         24.240000   11.110000    1.060000  O         1 MOL       -1.0500 ****
422  O         21.600000   12.380000    1.060000  O         1 MOL       -1.0500 ****
423  O         21.600000   13.920000    3.280000  O         1 MOL       -1.0500 ****
424  O         25.560000   16.120000    3.280000  O         1 MOL       -1.0500 ****
425  O         22.920000   16.110000    3.280000  O         1 MOL       -1.0500 ****
426Ohmg         24.240000   13.930000    1.060000  O         1 MOL       -1.0809 ****
427Omg         21.600000   15.540000    1.060000  O         1 MOL       -1.1808 ****
428Omg         24.240000   16.780000    1.060000  O         1 MOL       -1.1808 ****
429  O         22.480000   18.310000   38.300000  O         1 MOL       -1.0500 ****
430  O         23.800000   16.060000   38.300000  O         1 MOL       -1.0500 ****
431  O         21.160000   16.170000   38.300000  O         1 MOL       -1.0500 ****
432 Oh         25.120000   18.180000   40.520000  O         1 MOL       -0.9500 ****
433Omg         22.480000   16.700000   40.520000  O         1 MOL       -1.1808 ****
434Omg         25.120000   15.460000   40.520000  O         1 MOL       -1.1808 ****
435  O         25.120000   13.910000   38.300000  O         1 MOL       -1.0500 ****
436  O         21.160000   11.730000   38.300000  O         1 MOL       -1.0500 ****
437  O         23.800000   11.760000   38.300000  O         1 MOL       -1.0500 ****
438Ohmg         22.480000   13.940000   40.520000  O         1 MOL       -1.0809 ****
439  O         25.120000   12.520000   40.520000  O         1 MOL       -1.0500 ****
440  O         22.480000   11.210000   40.520000  O         1 MOL       -1.0500 ****
441 Al         31.280000   11.060000    0.000000 Al         1 MOL        1.5750 ****
442 Al         31.280000    8.070000    0.000000 Al         1 MOL        1.5750 ****
443 Al          2.240000   15.490000    0.000000 Al         1 MOL        1.5750 ****
444Mgo          2.240000   12.390000    0.000000 Mg         1 MOL        1.3600 ****
445 Si         29.520000   11.040000    2.730000 Si         1 MOL        2.1000 ****
446 Si         26.880000   12.460000    2.730000 Si         1 MOL        2.1000 ****
447 Si         26.880000   15.350000    2.730000 Si         1 MOL        2.1000 ****
448 Si         29.520000   16.860000    2.730000 Si         1 MOL        2.1000 ****
449 Si         27.760000   16.820000   38.850000 Si         1 MOL        2.1000 ****
450 Si         30.400000   15.390000   38.850000 Si         1 MOL        2.1000 ****
451 Si         30.400000   12.470000   38.850000 Si         1 MOL        2.1000 ****
452 Si         27.760000   11.070000   38.850000 Si         1 MOL        2.1000 ****
453  H         27.830000    9.690000    0.870000  H         1 MOL        0.4250 ****
454  H         30.410000   13.650000    0.700000  H         1 MOL        0.4250 ****
455  H         29.450000   18.290000   40.740000  H         1 MOL        0.4250 ****
456  H         26.910000   13.960000   41.000000  H         1 MOL        0.4250 ****
457  O         29.520000    9.550000    3.280000  O         1 MOL       -1.0500 ****
458  O         28.200000   11.740000    3.280000  O         1 MOL       -1.0500 ****
459  O         30.840000   11.790000    3.280000  O         1 MOL       -1.0500 ****
460 Oh         26.880000    9.520000    1.060000  O         1 MOL       -0.9500 ****
461  O         29.520000   11.110000    1.060000  O         1 MOL       -1.0500 ****
462  O         26.880000   12.380000    1.060000  O         1 MOL       -1.0500 ****
463  O         26.880000   13.920000    3.280000  O         1 MOL       -1.0500 ****
464  O         30.840000   16.120000    3.280000  O         1 MOL       -1.0500 ****
465  O         28.200000   16.110000    3.280000  O         1 MOL       -1.0500 ****
466 Oh         29.520000   13.930000    1.060000  O         1 MOL       -0.9500 ****
467  O         26.880000   15.540000    1.060000  O         1 MOL       -1.0500 ****
468  O         29.520000   16.780000    1.060000  O         1 MOL       -1.0500 ****
469  O         27.760000   18.310000   38.300000  O         1 MOL       -1.0500 ****
470  O         29.080000   16.060000   38.300000  O         1 MOL       -1.0500 ****
471  O         26.440000   16.170000   38.300000  O         1 MOL       -1.0500 ****
472 Oh         30.400000   18.180000   40.520000  O         1 MOL       -0.9500 ****
473  O         27.760000   16.700000   40.520000  O         1 MOL       -1.0500 ****
474  O         30.400000   15.460000   40.520000  O         1 MOL       -1.0500 ****
475  O         30.400000   13.910000   38.300000  O         1 MOL       -1.0500 ****
476  O         26.440000   11.730000   38.300000  O         1 MOL       -1.0500 ****
477  O         29.080000   11.760000   38.300000  O         1 MOL       -1.0500 ****
478 Oh         27.760000   13.940000   40.520000  O         1 MOL       -0.9500 ****
479  O         30.400000   12.520000   40.520000  O         1 MOL       -1.0500 ****
480  O         27.760000   11.210000   40.520000  O         1 MOL       -1.0500 ****
481 Al          4.880000   20.200000    0.000000 Al         1 MOL        1.5750 ****
482 Al          4.880000   17.210000    0.000000 Al         1 MOL        1.5750 ****
483 Al          7.520000   24.630000    0.000000 Al         1 MOL        1.5750 ****
484Mgo          7.520000   21.530000    0.000000 Mg         1 MOL        1.3600 ****
485 Si          3.120000   20.180000    2.730000 Si         1 MOL        2.1000 ****
486 Si          0.480000   21.600000    2.730000 Si         1 MOL        2.1000 ****
487 Si          0.480000   24.490000    2.730000 Si         1 MOL        2.1000 ****
488 Si          3.120000   26.000000    2.730000 Si         1 MOL        2.1000 ****
489 Si          1.360000   25.960000   38.850000 Si         1 MOL        2.1000 ****
490 Si          4.000000   24.530000   38.850000 Si         1 MOL        2.1000 ****
491 Si          4.000000   21.610000   38.850000 Si         1 MOL        2.1000 ****
492 Si          1.360000   20.210000   38.850000 Si         1 MOL        2.1000 ****
493  H          1.430000   18.830000    0.870000  H         1 MOL        0.4250 ****
494  H          4.010000   22.790000    0.700000  H         1 MOL        0.4250 ****
495  H          3.050000   27.430000   40.740000  H         1 MOL        0.4250 ****
496  H          0.510000   23.100000   41.000000  H         1 MOL        0.4250 ****
497  O          3.120000   18.690000    3.280000  O         1 MOL       -1.0500 ****
498  O          1.800000   20.880000    3.280000  O         1 MOL       -1.0500 ****
499  O          4.440000   20.930000    3.280000  O         1 MOL       -1.0500 ****
500 Oh          0.480000   18.660000    1.060000  O         1 MOL       -0.9500 ****
501  O          3.120000   20.250000    1.060000  O         1 MOL       -1.0500 ****
502  O          0.480000   21.520000    1.060000  O         1 MOL       -1.0500 ****
503  O          0.480000   23.060000    3.280000  O         1 MOL       -1.0500 ****
504  O          4.440000   25.260000    3.280000  O         1 MOL       -1.0500 ****
505  O          1.800000   25.250000    3.280000  O         1 MOL       -1.0500 ****
506Ohmg          3.120000   23.070000    1.060000  O         1 MOL       -1.0809 ****
507Omg          0.480000   24.680000    1.060000  O         1 MOL       -1.1808 ****
508Omg          3.120000   25.920000    1.060000  O         1 MOL       -1.1808 ****
509  O          1.360000   27.450000   38.300000  O         1 MOL       -1.0500 ****
510  O          2.680000   25.200000   38.300000  O         1 MOL       -1.0500 ****
511  O          0.040000   25.310000   38.300000  O         1 MOL       -1.0500 ****
512 Oh          4.000000   27.320000   40.520000  O         1 MOL       -0.9500 ****
513Omg          1.360000   25.840000   40.520000  O         1 MOL       -1.1808 ****
514Omg          4.000000   24.600000   40.520000  O         1 MOL       -1.1808 ****
515  O          4.000000   23.050000   38.300000  O         1 MOL       -1.0500 ****
516  O          0.040000   20.870000   38.300000  O         1 MOL       -1.0500 ****
517  O          2.680000   20.900000   38.300000  O         1 MOL       -1.0500 ****
518Ohmg          1.360000   23.080000   40.520000  O         1 MOL       -1.0809 ****
519  O          4.000000   21.660000   40.520000  O         1 MOL       -1.0500 ****
520  O          1.360000   20.350000   40.520000  O         1 MOL       -1.0500 ****
521 Al         10.160000   20.200000    0.000000 Al         1 MOL        1.5750 ****
522 Al         10.160000   17.210000    0.000000 Al         1 MOL        1.5750 ****
523 Al         12.800000   24.630000    0.000000 Al         1 MOL        1.5750 ****
524 Al         12.800000   21.530000    0.000000 Al         1 MOL        1.5750 ****
525 Si          8.400000   20.180000    2.730000 Si         1 MOL        2.1000 ****
526 Si          5.760000   21.600000    2.730000 Si         1 MOL        2.1000 ****
527 Si          5.760000   24.490000    2.730000 Si         1 MOL        2.1000 ****
528 Si          8.400000   26.000000    2.730000 Si         1 MOL        2.1000 ****
529 Si          6.640000   25.960000   38.850000 Si         1 MOL        2.1000 ****
530 Si          9.280000   24.530000   38.850000 Si         1 MOL        2.1000 ****
531 Si          9.280000   21.610000   38.850000 Si         1 MOL        2.1000 ****
532 Si          6.640000   20.210000   38.850000 Si         1 MOL        2.1000 ****
533  H          6.710000   18.830000    0.870000  H         1 MOL        0.4250 ****
534  H          9.290000   22.790000    0.700000  H         1 MOL        0.4250 ****
535  H          8.330000   27.430000   40.740000  H         1 MOL        0.4250 ****
536  H          5.790000   23.100000   41.000000  H         1 MOL        0.4250 ****
537  O          8.400000   18.690000    3.280000  O         1 MOL       -1.0500 ****
538  O          7.080000   20.880000    3.280000  O         1 MOL       -1.0500 ****
539  O          9.720000   20.930000    3.280000  O         1 MOL       -1.0500 ****
540 Oh          5.760000   18.660000    1.060000  O         1 MOL       -0.9500 ****
541Omg          8.400000   20.250000    1.060000  O         1 MOL       -1.1808 ****
542Omg          5.760000   21.520000    1.060000  O         1 MOL       -1.1808 ****
543  O          5.760000   23.060000    3.280000  O         1 MOL       -1.0500 ****
544  O          9.720000   25.260000    3.280000  O         1 MOL       -1.0500 ****
545  O          7.080000   25.250000    3.280000  O         1 MOL       -1.0500 ****
546Ohmg          8.400000   23.070000    1.060000  O         1 MOL       -1.0809 ****
547  O          5.760000   24.680000    1.060000  O         1 MOL       -1.0500 ****
548  O          8.400000   25.920000    1.060000  O         1 MOL       -1.0500 ****
549  O          6.640000   27.450000   38.300000  O         1 MOL       -1.0500 ****
550  O          7.960000   25.200000   38.300000  O         1 MOL       -1.0500 ****
551  O          5.320000   25.310000   38.300000  O         1 MOL       -1.0500 ****
552Ohmg          9.280000   27.320000   40.520000  O         1 MOL       -1.0809 ****
553  O          6.640000   25.840000   40.520000  O         1 MOL       -1.0500 ****
554  O          9.280000   24.600000   40.520000  O         1 MOL       -1.0500 ****
555  O          9.280000   23.050000   38.300000  O         1 MOL       -1.0500 ****
556  O          5.320000   20.870000   38.300000  O         1 MOL       -1.0500 ****
557  O          7.960000   20.900000   38.300000  O         1 MOL       -1.0500 ****
558Ohmg          6.640000   23.080000   40.520000  O         1 MOL       -1.0809 ****
559Omg          9.280000   21.660000   40.520000  O         1 MOL       -1.1808 ****
560Omg          6.640000   20.350000   40.520000  O         1 MOL       -1.1808 ****
561 Al         15.440000   20.200000    0.000000 Al         1 MOL        1.5750 ****
562 Al         15.440000   17.210000    0.000000 Al         1 MOL        1.5750 ****
563 Al         18.080000   24.630000    0.000000 Al         1 MOL        1.5750 ****
564Mgo         18.080000   21.530000    0.000000 Mg         1 MOL        1.3600 ****
565 Si         13.680000   20.180000    2.730000 Si         1 MOL        2.1000 ****
566 Si         11.040000   21.600000    2.730000 Si         1 MOL        2.1000 ****
567 Si         11.040000   24.490000    2.730000 Si         1 MOL        2.1000 ****
568 Si         13.680000   26.000000    2.730000 Si         1 MOL        2.1000 ****
569 Si         11.920000   25.960000   38.850000 Si         1 MOL        2.1000 ****
570 Si         14.560000   24.530000   38.850000 Si         1 MOL        2.1000 ****
571 Si         14.560000   21.610000   38.850000 Si         1 MOL        2.1000 ****
572 Si         11.920000   20.210000   38.850000 Si         1 MOL        2.1000 ****
573  H         11.990000   18.830000    0.870000  H         1 MOL        0.4250 ****
574  H         14.570000   22.790000    0.700000  H         1 MOL        0.4250 ****
575  H         13.610000   27.430000   40.740000  H         1 MOL        0.4250 ****
576  H         11.070000   23.100000   41.000000  H         1 MOL        0.4250 ****
577  O         13.680000   18.690000    3.280000  O         1 MOL       -1.0500 ****
578  O         12.360000   20.880000    3.280000  O         1 MOL       -1.0500 ****
579  O         15.000000   20.930000    3.280000  O         1 MOL       -1.0500 ****
580 Oh         11.040000   18.660000    1.060000  O         1 MOL       -0.9500 ****
581  O         13.680000   20.250000    1.060000  O         1 MOL       -1.0500 ****
582  O         11.040000   21.520000    1.060000  O         1 MOL       -1.0500 ****
583  O         11.040000   23.060000    3.280000  O         1 MOL       -1.0500 ****
584  O         15.000000   25.260000    3.280000  O         1 MOL       -1.0500 ****
585  O         12.360000   25.250000    3.280000  O         1 MOL       -1.0500 ****
586 Oh         13.680000   23.070000    1.060000  O         1 MOL       -0.9500 ****
587  O         11.040000   24.680000    1.060000  O         1 MOL       -1.0500 ****
588  O         13.680000   25.920000    1.060000  O         1 MOL       -1.0500 ****
589  O         11.920000   27.450000   38.300000  O         1 MOL       -1.0500 ****
590  O         13.240000   25.200000   38.300000  O         1 MOL       -1.0500 ****
591  O         10.600000   25.310000   38.300000  O         1 MOL       -1.0500 ****
592 Oh         14.560000   27.320000   40.520000  O         1 MOL       -0.9500 ****
593  O         11.920000   25.840000   40.520000  O         1 MOL       -1.0500 ****
594  O         14.560000   24.600000   40.520000  O         1 MOL       -1.0500 ****
595  O         14.560000   23.050000   38.300000  O         1 MOL       -1.0500 ****
596  O         10.600000   20.870000   38.300000  O         1 MOL       -1.0500 ****
597  O         13.240000   20.900000   38.300000  O         1 MOL       -1.0500 ****
598 Oh         11.920000   23.080000   40.520000  O         1 MOL       -0.9500 ****
599  O         14.560000   21.660000   40.520000  O         1 MOL       -1.0500 ****
600  O         11.920000   20.350000   40.520000  O         1 MOL       -1.0500 ****
601 Al         20.720000   20.200000    0.000000 Al         1 MOL        1.5750 ****
602 Al         20.720000   17.210000    0.000000 Al         1 MOL        1.5750 ****
603 Al         23.360000   24.630000    0.000000 Al         1 MOL        1.5750 ****
604 Al         23.360000   21.530000    0.000000 Al         1 MOL        1.5750 ****
605 Si         18.960000   20.180000    2.730000 Si         1 MOL        2.1000 ****
606 Si         16.320000   21.600000    2.730000 Si         1 MOL        2.1000 ****
607 Si         16.320000   24.490000    2.730000 Si         1 MOL        2.1000 ****
608 Si         18.960000   26.000000    2.730000 Si         1 MOL        2.1000 ****
609 Si         17.200000   25.960000   38.850000 Si         1 MOL        2.1000 ****
610 Si         19.840000   24.530000   38.850000 Si         1 MOL        2.1000 ****
611 Si         19.840000   21.610000   38.850000 Si         1 MOL        2.1000 ****
612 Si         17.200000   20.210000   38.850000 Si         1 MOL        2.1000 ****
613  H         17.270000   18.830000    0.870000  H         1 MOL        0.4250 ****
614  H         19.850000   22.790000    0.700000  H         1 MOL        0.4250 ****
615  H         18.890000   27.430000   40.740000  H         1 MOL        0.4250 ****
616  H         16.350000   23.100000   41.000000  H         1 MOL        0.4250 ****
617  O         18.960000   18.690000    3.280000  O         1 MOL       -1.0500 ****
618  O         17.640000   20.880000    3.280000  O         1 MOL       -1.0500 ****
619  O         20.280000   20.930000    3.280000  O         1 MOL       -1.0500 ****
620 Oh         16.320000   18.660000    1.060000  O         1 MOL       -0.9500 ****
621Omg         18.960000   20.250000    1.060000  O         1 MOL       -1.1808 ****
622Omg         16.320000   21.520000    1.060000  O         1 MOL       -1.1808 ****
623  O         16.320000   23.060000    3.280000  O         1 MOL       -1.0500 ****
624  O         20.280000   25.260000    3.280000  O         1 MOL       -1.0500 ****
625  O         17.640000   25.250000    3.280000  O         1 MOL       -1.0500 ****
626Ohmg         18.960000   23.070000    1.060000  O         1 MOL       -1.0809 ****
627  O         16.320000   24.680000    1.060000  O         1 MOL       -1.0500 ****
628  O         18.960000   25.920000    1.060000  O         1 MOL       -1.0500 ****
629  O         17.200000   27.450000   38.300000  O         1 MOL       -1.0500 ****
630  O         18.520000   25.200000   38.300000  O         1 MOL       -1.0500 ****
631  O         15.880000   25.310000   38.300000  O         1 MOL       -1.0500 ****
632 Oh         19.840000   27.320000   40.520000  O         1 MOL       -0.9500 ****
633  O         17.200000   25.840000   40.520000  O         1 MOL       -1.0500 ****
634  O         19.840000   24.600000   40.520000  O         1 MOL       -1.0500 ****
635  O         19.840000   23.050000   38.300000  O         1 MOL       -1.0500 ****
636  O         15.880000   20.870000   38.300000  O         1 MOL       -1.0500 ****
637  O         18.520000   20.900000   38.300000  O         1 MOL       -1.0500 ****
638Ohmg         17.200000   23.080000   40.520000  O         1 MOL       -1.0809 ****
639Omg         19.840000   21.660000   40.520000  O         1 MOL       -1.1808 ****
640Omg         17.200000   20.350000   40.520000  O         1 MOL       -1.1808 ****
641 Al         26.000000   20.200000    0.000000 Al         1 MOL        1.5750 ****
642 Al         26.000000   17.210000    0.000000 Al         1 MOL        1.5750 ****
643 Al         28.640000   24.630000    0.000000 Al         1 MOL        1.5750 ****
644Mgo         28.640000   21.530000    0.000000 Mg         1 MOL        1.3600 ****
645 Si         24.240000   20.180000    2.730000 Si         1 MOL        2.1000 ****
646 Si         21.600000   21.600000    2.730000 Si         1 MOL        2.1000 ****
647 Si         21.600000   24.490000    2.730000 Si         1 MOL        2.1000 ****
648 Si         24.240000   26.000000    2.730000 Si         1 MOL        2.1000 ****
649 Si         22.480000   25.960000   38.850000 Si         1 MOL        2.1000 ****
650 Si         25.120000   24.530000   38.850000 Si         1 MOL        2.1000 ****
651 Si         25.120000   21.610000   38.850000 Si         1 MOL        2.1000 ****
652 Si         22.480000   20.210000   38.850000 Si         1 MOL        2.1000 ****
653  H         22.550000   18.830000    0.870000  H         1 MOL        0.4250 ****
654  H         25.130000   22.790000    0.700000  H         1 MOL        0.4250 ****
655  H         24.170000   27.430000   40.740000  H         1 MOL        0.4250 ****
656  H         21.630000   23.100000   41.000000  H         1 MOL        0.4250 ****
657  O         24.240000   18.690000    3.280000  O         1 MOL       -1.0500 ****
658  O         22.920000   20.880000    3.280000  O         1 MOL       -1.0500 ****
659  O         25.560000   20.930000    3.280000  O         1 MOL       -1.0500 ****
660 Oh         21.600000   18.660000    1.060000  O         1 MOL       -0.9500 ****
661  O         24.240000   20.250000    1.060000  O         1 MOL       -1.0500 ****
662  O         21.600000   21.520000    1.060000  O         1 MOL       -1.0500 ****
663  O         21.600000   23.060000    3.280000  O         1 MOL       -1.0500 ****
664  O         25.560000   25.260000    3.280000  O         1 MOL       -1.0500 ****
665  O         22.920000   25.250000    3.280000  O         1 MOL       -1.0500 ****
666 Oh         24.240000   23.070000    1.060000  O         1 MOL       -0.9500 ****
667  O         21.600000   24.680000    1.060000  O         1 MOL       -1.0500 ****
668  O         24.240000   25.920000    1.060000  O         1 MOL       -1.0500 ****
669  O         22.480000   27.450000   38.300000  O         1 MOL       -1.0500 ****
670  O         23.800000   25.200000   38.300000  O         1 MOL       -1.0500 ****
671  O         21.160000   25.310000   38.300000  O         1 MOL       -1.0500 ****
672Ohmg         25.120000   27.320000   40.520000  O         1 MOL       -1.0809 ****
673  O         22.480000   25.840000   40.520000  O         1 MOL       -1.0500 ****
674  O         25.120000   24.600000   40.520000  O         1 MOL       -1.0500 ****
675  O         25.120000   23.050000   38.300000  O         1 MOL       -1.0500 ****
676  O         21.160000   20.870000   38.300000  O         1 MOL       -1.0500 ****
677  O         23.800000   20.900000   38.300000  O         1 MOL       -1.0500 ****
678 Oh         22.480000   23.080000   40.520000  O         1 MOL       -0.9500 ****
679  O         25.120000   21.660000   40.520000  O         1 MOL       -1.0500 ****
680  O         22.480000   20.350000   40.520000  O         1 MOL       -1.0500 ****
681 Al         31.280000   20.200000    0.000000 Al         1 MOL        1.5750 ****
682 Al         31.280000   17.210000    0.000000 Al         1 MOL        1.5750 ****
683Mgo          2.240000   24.630000    0.000000 Mg         1 MOL        1.3600 ****
684 Al          2.240000   21.530000    0.000000 Al         1 MOL        1.5750 ****
685 Si         29.520000   20.180000    2.730000 Si         1 MOL        2.1000 ****
686 Si         26.880000   21.600000    2.730000 Si         1 MOL        2.1000 ****
687 Si         26.880000   24.490000    2.730000 Si         1 MOL        2.1000 ****
688 Si         29.520000   26.000000    2.730000 Si         1 MOL        2.1000 ****
689 Si         27.760000   25.960000   38.850000 Si         1 MOL        2.1000 ****
690 Si         30.400000   24.530000   38.850000 Si         1 MOL        2.1000 ****
691 Si         30.400000   21.610000   38.850000 Si         1 MOL        2.1000 ****
692 Si         27.760000   20.210000   38.850000 Si         1 MOL        2.1000 ****
693  H         27.830000   18.830000    0.870000  H         1 MOL        0.4250 ****
694  H         30.410000   22.790000    0.700000  H         1 MOL        0.4250 ****
695  H         29.450000   27.430000   40.740000  H         1 MOL        0.4250 ****
696  H         26.910000   23.100000   41.000000  H         1 MOL        0.4250 ****
697  O         29.520000   18.690000    3.280000  O         1 MOL       -1.0500 ****
698  O         28.200000   20.880000    3.280000  O         1 MOL       -1.0500 ****
699  O         30.840000   20.930000    3.280000  O         1 MOL       -1.0500 ****
700 Oh         26.880000   18.660000    1.060000  O         1 MOL       -0.9500 ****
701Omg         29.520000   20.250000    1.060000  O         1 MOL       -1.1808 ****
702Omg         26.880000   21.520000    1.060000  O         1 MOL       -1.1808 ****
703  O         26.880000   23.060000    3.280000  O         1 MOL       -1.0500 ****
704  O         30.840000   25.260000    3.280000  O         1 MOL       -1.0500 ****
705  O         28.200000   25.250000    3.280000  O         1 MOL       -1.0500 ****
706Ohmg         29.520000   23.070000    1.060000  O         1 MOL       -1.0809 ****
707  O         26.880000   24.680000    1.060000  O         1 MOL       -1.0500 ****
708  O         29.520000   25.920000    1.060000  O         1 MOL       -1.0500 ****
709  O         27.760000   27.450000   38.300000  O         1 MOL       -1.0500 ****
710  O         29.080000   25.200000   38.300000  O         1 MOL       -1.0500 ****
711  O         26.440000   25.310000   38.300000  O         1 MOL       -1.0500 ****
712 Oh         30.400000   27.320000   40.520000  O         1 MOL       -0.9500 ****
713  O         27.760000   25.840000   40.520000  O         1 MOL       -1.0500 ****
714  O         30.400000   24.600000   40.520000  O         1 MOL       -1.0500 ****
715  O         30.400000   23.050000   38.300000  O         1 MOL       -1.0500 ****
716  O         26.440000   20.870000   38.300000  O         1 MOL       -1.0500 ****
717  O         29.080000   20.900000   38.300000  O         1 MOL       -1.0500 ****
718Ohmg         27.760000   23.080000   40.520000  O         1 MOL       -1.0809 ****
719Omg         30.400000   21.660000   40.520000  O         1 MOL       -1.1808 ****
720Omg         27.760000   20.350000   40.520000  O         1 MOL       -1.1808 ****
721 Al          4.880000   29.340000    0.000000 Al         1 MOL        1.5750 ****
722 Al          4.880000   26.350000    0.000000 Al         1 MOL        1.5750 ****
723 Al          7.520000   33.770000    0.000000 Al         1 MOL        1.5750 ****
724 Al          7.520000   30.670000    0.000000 Al         1 MOL        1.5750 ****
725 Si          3.120000   29.320000    2.730000 Si         1 MOL        2.1000 ****
726 Si          0.480000   30.740000    2.730000 Si         1 MOL        2.1000 ****
727 Si          0.480000   33.630000    2.730000 Si         1 MOL        2.1000 ****
728 Si          3.120000   35.140000    2.730000 Si         1 MOL        2.1000 ****
729 Si          1.360000   35.100000   38.850000 Si         1 MOL        2.1000 ****
730 Si          4.000000   33.670000   38.850000 Si         1 MOL        2.1000 ****
731 Si          4.000000   30.750000   38.850000 Si         1 MOL        2.1000 ****
732 Si          1.360000   29.350000   38.850000 Si         1 MOL        2.1000 ****
733  H          1.430000   27.970000    0.870000  H         1 MOL        0.4250 ****
734  H          4.010000   31.930000    0.700000  H         1 MOL        0.4250 ****
735  H          3.050000    0.010000   40.740000  H         1 MOL        0.4250 ****
736  H          0.510000   32.240000   41.000000  H         1 MOL        0.4250 ****
737  O          3.120000   27.830000    3.280000  O         1 MOL       -1.0500 ****
738  O          1.800000   30.020000    3.280000  O         1 MOL       -1.0500 ****
739  O          4.440000   30.070000    3.280000  O         1 MOL       -1.0500 ****
740 Oh          0.480000   27.800000    1.060000  O         1 MOL       -0.9500 ****
741Omg          3.120000   29.390000    1.060000  O         1 MOL       -1.1808 ****
742Omg          0.480000   30.660000    1.060000  O         1 MOL       -1.1808 ****
743  O          0.480000   32.200000    3.280000  O         1 MOL       -1.0500 ****
744  O          4.440000   34.400000    3.280000  O         1 MOL       -1.0500 ****
745  O          1.800000   34.390000    3.280000  O         1 MOL       -1.0500 ****
746Ohmg          3.120000   32.210000    1.060000  O         1 MOL       -1.0809 ****
747  O          0.480000   33.820000    1.060000  O         1 MOL       -1.0500 ****
748  O          3.120000   35.060000    1.060000  O         1 MOL       -1.0500 ****
749  O          1.360000    0.030000   38.300000  O         1 MOL       -1.0500 ****
750  O          2.680000   34.340000   38.300000  O         1 MOL       -1.0500 ****
751  O          0.040000   34.450000   38.300000  O         1 MOL       -1.0500 ****
752 Oh          4.000000   36.460000   40.520000  O         1 MOL       -0.9500 ****
753  O          1.360000   34.980000   40.520000  O         1 MOL       -1.0500 ****
754  O          4.000000   33.740000   40.520000  O         1 MOL       -1.0500 ****
755  O          4.000000   32.190000   38.300000  O         1 MOL       -1.0500 ****
756  O          0.040000   30.010000   38.300000  O         1 MOL       -1.0500 ****
757  O          2.680000   30.040000   38.300000  O         1 MOL       -1.0500 ****
758Ohmg          1.360000   32.220000   40.520000  O         1 MOL       -1.0809 ****
759Omg          4.000000   30.800000   40.520000  O         1 MOL       -1.1808 ****
760Omg          1.360000   29.490000   40.520000  O         1 MOL       -1.1808 ****
761Mgo         10.160000   29.340000    0.000000 Mg         1 MOL        1.3600 ****
762 Al         10.160000   26.350000    0.000000 Al         1 MOL        1.5750 ****
763 Al         12.800000   33.770000    0.000000 Al         1 MOL        1.5750 ****
764 Al         12.800000   30.670000    0.000000 Al         1 MOL        1.5750 ****
765 Si          8.400000   29.320000    2.730000 Si         1 MOL        2.1000 ****
766 Si          5.760000   30.740000    2.730000 Si         1 MOL        2.1000 ****
767 Si          5.760000   33.630000    2.730000 Si         1 MOL        2.1000 ****
768 Si          8.400000   35.140000    2.730000 Si         1 MOL        2.1000 ****
769 Si          6.640000   35.100000   38.850000 Si         1 MOL        2.1000 ****
770 Si          9.280000   33.670000   38.850000 Si         1 MOL        2.1000 ****
771 Si          9.280000   30.750000   38.850000 Si         1 MOL        2.1000 ****
772 Si          6.640000   29.350000   38.850000 Si         1 MOL        2.1000 ****
773  H          6.710000   27.970000    0.870000  H         1 MOL        0.4250 ****
774  H          9.290000   31.930000    0.700000  H         1 MOL        0.4250 ****
775  H          8.330000    0.010000   40.740000  H         1 MOL        0.4250 ****
776  H          5.790000   32.240000   41.000000  H         1 MOL        0.4250 ****
777  O          8.400000   27.830000    3.280000  O         1 MOL       -1.0500 ****
778  O          7.080000   30.020000    3.280000  O         1 MOL       -1.0500 ****
779  O          9.720000   30.070000    3.280000  O         1 MOL       -1.0500 ****
780 Oh          5.760000   27.800000    1.060000  O         1 MOL       -0.9500 ****
781Omg          8.400000   29.390000    1.060000  O         1 MOL       -1.1808 ****
782  O          5.760000   30.660000    1.060000  O         1 MOL       -1.0500 ****
783  O          5.760000   32.200000    3.280000  O         1 MOL       -1.0500 ****
784  O          9.720000   34.400000    3.280000  O         1 MOL       -1.0500 ****
785  O          7.080000   34.390000    3.280000  O         1 MOL       -1.0500 ****
786 Oh          8.400000   32.210000    1.060000  O         1 MOL       -0.9500 ****
787  O          5.760000   33.820000    1.060000  O         1 MOL       -1.0500 ****
788  O          8.400000   35.060000    1.060000  O         1 MOL       -1.0500 ****
789  O          6.640000    0.030000   38.300000  O         1 MOL       -1.0500 ****
790  O          7.960000   34.340000   38.300000  O         1 MOL       -1.0500 ****
791  O          5.320000   34.450000   38.300000  O         1 MOL       -1.0500 ****
792Ohmg          9.280000   36.460000   40.520000  O         1 MOL       -1.0809 ****
793  O          6.640000   34.980000   40.520000  O         1 MOL       -1.0500 ****
794  O          9.280000   33.740000   40.520000  O         1 MOL       -1.0500 ****
795  O          9.280000   32.190000   38.300000  O         1 MOL       -1.0500 ****
796  O          5.320000   30.010000   38.300000  O         1 MOL       -1.0500 ****
797  O          7.960000   30.040000   38.300000  O         1 MOL       -1.0500 ****
798 Oh          6.640000   32.220000   40.520000  O         1 MOL       -0.9500 ****
799Omg          9.280000   30.800000   40.520000  O         1 MOL       -1.1808 ****
800  O          6.640000   29.490000   40.520000  O         1 MOL       -1.0500 ****
801 Al         15.440000   29.340000    0.000000 Al         1 MOL        1.5750 ****
802 Al         15.440000   26.350000    0.000000 Al         1 MOL        1.5750 ****
803Mgo         18.080000   33.770000    0.000000 Mg         1 MOL        1.3600 ****
804 Al         18.080000   30.670000    0.000000 Al         1 MOL        1.5750 ****
805 Si         13.680000   29.320000    2.730000 Si         1 MOL        2.1000 ****
806 Si         11.040000   30.740000    2.730000 Si         1 MOL        2.1000 ****
807 Si         11.040000   33.630000    2.730000 Si         1 MOL        2.1000 ****
808 Si         13.680000   35.140000    2.730000 Si         1 MOL        2.1000 ****
809 Si         11.920000   35.100000   38.850000 Si         1 MOL        2.1000 ****
810 Si         14.560000   33.670000   38.850000 Si         1 MOL        2.1000 ****
811 Si         14.560000   30.750000   38.850000 Si         1 MOL        2.1000 ****
812 Si         11.920000   29.350000   38.850000 Si         1 MOL        2.1000 ****
813  H         11.990000   27.970000    0.870000  H         1 MOL        0.4250 ****
814  H         14.570000   31.930000    0.700000  H         1 MOL        0.4250 ****
815  H         13.610000    0.010000   40.740000  H         1 MOL        0.4250 ****
816  H         11.070000   32.240000   41.000000  H         1 MOL        0.4250 ****
817  O         13.680000   27.830000    3.280000  O         1 MOL       -1.0500 ****
818  O         12.360000   30.020000    3.280000  O         1 MOL       -1.0500 ****
819  O         15.000000   30.070000    3.280000  O         1 MOL       -1.0500 ****
820Ohmg         11.040000   27.800000    1.060000  O         1 MOL       -1.0809 ****
821  O         13.680000   29.390000    1.060000  O         1 MOL       -1.0500 ****
822Omg         11.040000   30.660000    1.060000  O         1 MOL       -1.1808 ****
823  O         11.040000   32.200000    3.280000  O         1 MOL       -1.0500 ****
824  O         15.000000   34.400000    3.280000  O         1 MOL       -1.0500 ****
825  O         12.360000   34.390000    3.280000  O         1 MOL       -1.0500 ****
826 Oh         13.680000   32.210000    1.060000  O         1 MOL       -0.9500 ****
827  O         11.040000   33.820000    1.060000  O         1 MOL       -1.0500 ****
828  O         13.680000   35.060000    1.060000  O         1 MOL       -1.0500 ****
829  O         11.920000    0.030000   38.300000  O         1 MOL       -1.0500 ****
830  O         13.240000   34.340000   38.300000  O         1 MOL       -1.0500 ****
831  O         10.600000   34.450000   38.300000  O         1 MOL       -1.0500 ****
832 Oh         14.560000   36.460000   40.520000  O         1 MOL       -0.9500 ****
833  O         11.920000   34.980000   40.520000  O         1 MOL       -1.0500 ****
834  O         14.560000   33.740000   40.520000  O         1 MOL       -1.0500 ****
835  O         14.560000   32.190000   38.300000  O         1 MOL       -1.0500 ****
836  O         10.600000   30.010000   38.300000  O         1 MOL       -1.0500 ****
837  O         13.240000   30.040000   38.300000  O         1 MOL       -1.0500 ****
838 Oh         11.920000   32.220000   40.520000  O         1 MOL       -0.9500 ****
839  O         14.560000   30.800000   40.520000  O         1 MOL       -1.0500 ****
840Omg         11.920000   29.490000   40.520000  O         1 MOL       -1.1808 ****
841 Al         20.720000   29.340000    0.000000 Al         1 MOL        1.5750 ****
842 Al         20.720000   26.350000    0.000000 Al         1 MOL        1.5750 ****
843 Al         23.360000   33.770000    0.000000 Al         1 MOL        1.5750 ****
844 Al         23.360000   30.670000    0.000000 Al         1 MOL        1.5750 ****
845 Si         18.960000   29.320000    2.730000 Si         1 MOL        2.1000 ****
846 Si         16.320000   30.740000    2.730000 Si         1 MOL        2.1000 ****
847 Si         16.320000   33.630000    2.730000 Si         1 MOL        2.1000 ****
848 Si         18.960000   35.140000    2.730000 Si         1 MOL        2.1000 ****
849 Si         17.200000   35.100000   38.850000 Si         1 MOL        2.1000 ****
850 Si         19.840000   33.670000   38.850000 Si         1 MOL        2.1000 ****
851 Si         19.840000   30.750000   38.850000 Si         1 MOL        2.1000 ****
852 Si         17.200000   29.350000   38.850000 Si         1 MOL        2.1000 ****
853  H         17.270000   27.970000    0.870000  H         1 MOL        0.4250 ****
854  H         19.850000   31.930000    0.700000  H         1 MOL        0.4250 ****
855  H         18.890000    0.010000   40.740000  H         1 MOL        0.4250 ****
856  H         16.350000   32.240000   41.000000  H         1 MOL        0.4250 ****
857  O         18.960000   27.830000    3.280000  O         1 MOL       -1.0500 ****
858  O         17.640000   30.020000    3.280000  O         1 MOL       -1.0500 ****
859  O         20.280000   30.070000    3.280000  O         1 MOL       -1.0500 ****
860 Oh         16.320000   27.800000    1.060000  O         1 MOL       -0.9500 ****
861  O         18.960000   29.390000    1.060000  O         1 MOL       -1.0500 ****
862  O         16.320000   30.660000    1.060000  O         1 MOL       -1.0500 ****
863  O         16.320000   32.200000    3.280000  O         1 MOL       -1.0500 ****
864  O         20.280000   34.400000    3.280000  O         1 MOL       -1.0500 ****
865  O         17.640000   34.390000    3.280000  O         1 MOL       -1.0500 ****
866Ohmg         18.960000   32.210000    1.060000  O         1 MOL       -1.0809 ****
867Omg         16.320000   33.820000    1.060000  O         1 MOL       -1.1808 ****
868Omg         18.960000   35.060000    1.060000  O         1 MOL       -1.1808 ****
869  O         17.200000    0.030000   38.300000  O         1 MOL       -1.0500 ****
870  O         18.520000   34.340000   38.300000  O         1 MOL       -1.0500 ****
871  O         15.880000   34.450000   38.300000  O         1 MOL       -1.0500 ****
872 Oh         19.840000   36.460000   40.520000  O         1 MOL       -0.9500 ****
873Omg         17.200000   34.980000   40.520000  O         1 MOL       -1.1808 ****
874Omg         19.840000   33.740000   40.520000  O         1 MOL       -1.1808 ****
875  O         19.840000   32.190000   38.300000  O         1 MOL       -1.0500 ****
876  O         15.880000   30.010000   38.300000  O         1 MOL       -1.0500 ****
877  O         18.520000   30.040000   38.300000  O         1 MOL       -1.0500 ****
878Ohmg         17.200000   32.220000   40.520000  O         1 MOL       -1.0809 ****
879  O         19.840000   30.800000   40.520000  O         1 MOL       -1.0500 ****
880  O         17.200000   29.490000   40.520000  O         1 MOL       -1.0500 ****
881Mgo         26.000000   29.340000    0.000000 Mg         1 MOL        1.3600 ****
882 Al         26.000000   26.350000    0.000000 Al         1 MOL        1.5750 ****
883 Al         28.640000   33.770000    0.000000 Al         1 MOL        1.5750 ****
884 Al         28.640000   30.670000    0.000000 Al         1 MOL        1.5750 ****
885 Si         24.240000   29.320000    2.730000 Si         1 MOL        2.1000 ****
886 Si         21.600000   30.740000    2.730000 Si         1 MOL        2.1000 ****
887 Si         21.600000   33.630000    2.730000 Si         1 MOL        2.1000 ****
888 Si         24.240000   35.140000    2.730000 Si         1 MOL        2.1000 ****
889 Si         22.480000   35.100000   38.850000 Si         1 MOL        2.1000 ****
890 Si         25.120000   33.670000   38.850000 Si         1 MOL        2.1000 ****
891 Si         25.120000   30.750000   38.850000 Si         1 MOL        2.1000 ****
892 Si         22.480000   29.350000   38.850000 Si         1 MOL        2.1000 ****
893  H         22.550000   27.970000    0.870000  H         1 MOL        0.4250 ****
894  H         25.130000   31.930000    0.700000  H         1 MOL        0.4250 ****
895  H         24.170000    0.010000   40.740000  H         1 MOL        0.4250 ****
896  H         21.630000   32.240000   41.000000  H         1 MOL        0.4250 ****
897  O         24.240000   27.830000    3.280000  O         1 MOL       -1.0500 ****
898  O         22.920000   30.020000    3.280000  O         1 MOL       -1.0500 ****
899  O         25.560000   30.070000    3.280000  O         1 MOL       -1.0500 ****
900 Oh         21.600000   27.800000    1.060000  O         1 MOL       -0.9500 ****
901Omg         24.240000   29.390000    1.060000  O         1 MOL       -1.1808 ****
902  O         21.600000   30.660000    1.060000  O         1 MOL       -1.0500 ****
903  O         21.600000   32.200000    3.280000  O         1 MOL       -1.0500 ****
904  O         25.560000   34.400000    3.280000  O         1 MOL       -1.0500 ****
905  O         22.920000   34.390000    3.280000  O         1 MOL       -1.0500 ****
906 Oh         24.240000   32.210000    1.060000  O         1 MOL       -0.9500 ****
907  O         21.600000   33.820000    1.060000  O         1 MOL       -1.0500 ****
908Omg         24.240000   35.060000    1.060000  O         1 MOL       -1.1808 ****
909  O         22.480000    0.030000   38.300000  O         1 MOL       -1.0500 ****
910  O         23.800000   34.340000   38.300000  O         1 MOL       -1.0500 ****
911  O         21.160000   34.450000   38.300000  O         1 MOL       -1.0500 ****
912Ohmg         25.120000   36.460000   40.520000  O         1 MOL       -1.0809 ****
913  O         22.480000   34.980000   40.520000  O         1 MOL       -1.0500 ****
914Omg         25.120000   33.740000   40.520000  O         1 MOL       -1.1808 ****
915  O         25.120000   32.190000   38.300000  O         1 MOL       -1.0500 ****
916  O         21.160000   30.010000   38.300000  O         1 MOL       -1.0500 ****
917  O         23.800000   30.040000   38.300000  O         1 MOL       -1.0500 ****
918 Oh         22.480000   32.220000   40.520000  O         1 MOL       -0.9500 ****
919Omg         25.120000   30.800000   40.520000  O         1 MOL       -1.1808 ****
920  O         22.480000   29.490000   40.520000  O         1 MOL       -1.0500 ****
921 Al         31.280000   29.340000    0.000000 Al         1 MOL        1.5750 ****
922 Al         31.280000   26.350000    0.000000 Al         1 MOL        1.5750 ****
923 Al          2.240000   33.770000    0.000000 Al         1 MOL        1.5750 ****
924Mgo          2.240000   30.670000    0.000000 Mg         1 MOL        1.3600 ****
925 Si         29.520000   29.320000    2.730000 Si         1 MOL        2.1000 ****
926 Si         26.880000   30.740000    2.730000 Si         1 MOL        2.1000 ****
927 Si         26.880000   33.630000    2.730000 Si         1 MOL        2.1000 ****
928 Si         29.520000   35.140000    2.730000 Si         1 MOL        2.1000 ****
929 Si         27.760000   35.100000   38.850000 Si         1 MOL        2.1000 ****
930 Si         30.400000   33.670000   38.850000 Si         1 MOL        2.1000 ****
931 Si         30.400000   30.750000   38.850000 Si         1 MOL        2.1000 ****
932 Si         27.760000   29.350000   38.850000 Si         1 MOL        2.1000 ****
933  H         27.830000   27.970000    0.870000  H         1 MOL        0.4250 ****
934  H         30.410000   31.930000    0.700000  H         1 MOL        0.4250 ****
935  H         29.450000    0.010000   40.740000  H         1 MOL        0.4250 ****
936  H         26.910000   32.240000   41.000000  H         1 MOL        0.4250 ****
937  O         29.520000   27.830000    3.280000  O         1 MOL       -1.0500 ****
938  O         28.200000   30.020000    3.280000  O         1 MOL       -1.0500 ****
939  O         30.840000   30.070000    3.280000  O         1 MOL       -1.0500 ****
940Ohmg         26.880000   27.800000    1.060000  O         1 MOL       -1.0809 ****
941  O         29.520000   29.390000    1.060000  O         1 MOL       -1.0500 ****
942Omg         26.880000   30.660000    1.060000  O         1 MOL       -1.1808 ****
943  O         26.880000   32.200000    3.280000  O         1 MOL       -1.0500 ****
944  O         30.840000   34.400000    3.280000  O         1 MOL       -1.0500 ****
945  O         28.200000   34.390000    3.280000  O         1 MOL       -1.0500 ****
946 Oh         29.520000   32.210000    1.060000  O         1 MOL       -0.9500 ****
947Omg         26.880000   33.820000    1.060000  O         1 MOL       -1.1808 ****
948  O         29.520000   35.060000    1.060000  O         1 MOL       -1.0500 ****
949  O         27.760000    0.030000   38.300000  O         1 MOL       -1.0500 ****
950  O         29.080000   34.340000   38.300000  O         1 MOL       -1.0500 ****
951  O         26.440000   34.450000   38.300000  O         1 MOL       -1.0500 ****
952 Oh         30.400000   36.460000   40.520000  O         1 MOL       -0.9500 ****
953Omg         27.760000   34.980000   40.520000  O         1 MOL       -1.1808 ****
954  O         30.400000   33.740000   40.520000  O         1 MOL       -1.0500 ****
955  O         30.400000   32.190000   38.300000  O         1 MOL       -1.0500 ****
956  O         26.440000   30.010000   38.300000  O         1 MOL       -1.0500 ****
957  O         29.080000   30.040000   38.300000  O         1 MOL       -1.0500 ****
958 Oh         27.760000   32.220000   40.520000  O         1 MOL       -0.9500 ****
959  O         30.400000   30.800000   40.520000  O         1 MOL       -1.0500 ****
960Omg         27.760000   29.490000   40.520000  O         1 MOL       -1.1808 ****
961Mgo          6.620000    4.920000   20.790000 Mg         1 MOL        1.3600 ****
962 Al          6.620000    1.930000   20.790000 Al         1 MOL        1.5750 ****
963 Al          9.260000    9.350000   20.790000 Al         1 MOL        1.5750 ****
964 Al          9.260000    6.250000   20.790000 Al         1 MOL        1.5750 ****
965 Si          4.860000    4.900000   23.520000 Si         1 MOL        2.1000 ****
966 Si          2.220000    6.320000   23.520000 Si         1 MOL        2.1000 ****
967 Si          2.220000    9.210000   23.520000 Si         1 MOL        2.1000 ****
968 Si          4.860000   10.720000   23.520000 Si         1 MOL        2.1000 ****
969 Si          3.100000   10.680000   18.060000 Si         1 MOL        2.1000 ****
970 Si          5.740000    9.250000   18.060000 Si         1 MOL        2.1000 ****
971 Si          5.740000    6.330000   18.060000 Si         1 MOL        2.1000 ****
972 Si          3.100000    4.930000   18.060000 Si         1 MOL        2.1000 ****
973  H          3.170000    3.550000   21.660000  H         1 MOL        0.4250 ****
974  H          5.750000    7.510000   21.490000  H         1 MOL        0.4250 ****
975  H          4.790000   12.150000   19.950000  H         1 MOL        0.4250 ****
976  H          2.250000    7.820000   20.210000  H         1 MOL        0.4250 ****
977  O          4.860000    3.410000   24.070000  O         1 MOL       -1.0500 ****
978  O          3.540000    5.600000   24.070000  O         1 MOL       -1.0500 ****
979  O          6.180000    5.650000   24.070000  O         1 MOL       -1.0500 ****
980 Oh          2.220000    3.380000   21.850000  O         1 MOL       -0.9500 ****
981Omg          4.860000    4.970000   21.850000  O         1 MOL       -1.1808 ****
982  O          2.220000    6.240000   21.850000  O         1 MOL       -1.0500 ****
983  O          2.220000    7.780000   24.070000  O         1 MOL       -1.0500 ****
984  O          6.180000    9.980000   24.070000  O         1 MOL       -1.0500 ****
985  O          3.540000    9.970000   24.070000  O         1 MOL       -1.0500 ****
986 Oh          4.860000    7.790000   21.850000  O         1 MOL       -0.9500 ****
987Omg          2.220000    9.400000   21.850000  O         1 MOL       -1.1808 ****
988  O          4.860000   10.640000   21.850000  O         1 MOL       -1.0500 ****
989  O          3.100000   12.170000   17.510000  O         1 MOL       -1.0500 ****
990  O          4.420000    9.920000   17.510000  O         1 MOL       -1.0500 ****
991  O          1.780000   10.030000   17.510000  O         1 MOL       -1.0500 ****
992 Oh          5.740000   12.040000   19.730000  O         1 MOL       -0.9500 ****
993Omg          3.100000   10.560000   19.730000  O         1 MOL       -1.1808 ****
994  O          5.740000    9.320000   19.730000  O         1 MOL       -1.0500 ****
995  O          5.740000    7.770000   17.510000  O         1 MOL       -1.0500 ****
996  O          1.780000    5.590000   17.510000  O         1 MOL       -1.0500 ****
997  O          4.420000    5.620000   17.510000  O         1 MOL       -1.0500 ****
998 Oh          3.100000    7.800000   19.730000  O         1 MOL       -0.9500 ****
999Omg          5.740000    6.380000   19.730000  O         1 MOL       -1.1808 ****
1000  O          3.100000    5.070000   19.730000  O         1 MOL       -1.0500 ****
1001 Al         11.900000    4.920000   20.790000 Al         1 MOL        1.5750 ****
1002 Al         11.900000    1.930000   20.790000 Al         1 MOL        1.5750 ****
1003 Al         14.540000    9.350000   20.790000 Al         1 MOL        1.5750 ****
1004 Al         14.540000    6.250000   20.790000 Al         1 MOL        1.5750 ****
1005 Si         10.140000    4.900000   23.520000 Si         1 MOL        2.1000 ****
1006 Si          7.500000    6.320000   23.520000 Si         1 MOL        2.1000 ****
1007 Si          7.500000    9.210000   23.520000 Si         1 MOL        2.1000 ****
1008 Si         10.140000   10.720000   23.520000 Si         1 MOL        2.1000 ****
1009 Si          8.380000   10.680000   18.060000 Si         1 MOL        2.1000 ****
1010 Si         11.020000    9.250000   18.060000 Si         1 MOL        2.1000 ****
1011 Si         11.020000    6.330000   18.060000 Si         1 MOL        2.1000 ****
1012 Si          8.380000    4.930000   18.060000 Si         1 MOL        2.1000 ****
1013  H          8.450000    3.550000   21.660000  H         1 MOL        0.4250 ****
1014  H         11.030000    7.510000   21.490000  H         1 MOL        0.4250 ****
1015  H         10.070000   12.150000   19.950000  H         1 MOL        0.4250 ****
1016  H          7.530000    7.820000   20.210000  H         1 MOL        0.4250 ****
1017  O         10.140000    3.410000   24.070000  O         1 MOL       -1.0500 ****
1018  O          8.820000    5.600000   24.070000  O         1 MOL       -1.0500 ****
1019  O         11.460000    5.650000   24.070000  O         1 MOL       -1.0500 ****
1020Ohmg          7.500000    3.380000   21.850000  O         1 MOL       -1.0809 ****
1021  O         10.140000    4.970000   21.850000  O         1 MOL       -1.0500 ****
1022Omg          7.500000    6.240000   21.850000  O         1 MOL       -1.1808 ****
1023  O          7.500000    7.780000   24.070000  O         1 MOL       -1.0500 ****
1024  O         11.460000    9.980000   24.070000  O         1 MOL       -1.0500 ****
1025  O          8.820000    9.970000   24.070000  O         1 MOL       -1.0500 ****
1026 Oh         10.140000    7.790000   21.850000  O         1 MOL       -0.9500 ****
1027  O          7.500000    9.400000   21.850000  O         1 MOL       -1.0500 ****
1028  O         10.140000   10.640000   21.850000  O         1 MOL       -1.0500 ****
1029  O          8.380000   12.170000   17.510000  O         1 MOL       -1.0500 ****
1030  O          9.700000    9.920000   17.510000  O         1 MOL       -1.0500 ****
1031  O          7.060000   10.030000   17.510000  O         1 MOL       -1.0500 ****
1032Ohmg         11.020000   12.040000   19.730000  O         1 MOL       -1.0809 ****
1033  O          8.380000   10.560000   19.730000  O         1 MOL       -1.0500 ****
1034  O         11.020000    9.320000   19.730000  O         1 MOL       -1.0500 ****
1035  O         11.020000    7.770000   17.510000  O         1 MOL       -1.0500 ****
1036  O          7.060000    5.590000   17.510000  O         1 MOL       -1.0500 ****
1037  O          9.700000    5.620000   17.510000  O         1 MOL       -1.0500 ****
1038 Oh          8.380000    7.800000   19.730000  O         1 MOL       -0.9500 ****
1039  O         11.020000    6.380000   19.730000  O         1 MOL       -1.0500 ****
1040Omg          8.380000    5.070000   19.730000  O         1 MOL       -1.1808 ****
1041 Al         17.180000    4.920000   20.790000 Al         1 MOL        1.5750 ****
1042Mgo         17.180000    1.930000   20.790000 Mg         1 MOL        1.3600 ****
1043 Al         19.820000    9.350000   20.790000 Al         1 MOL        1.5750 ****
1044 Al         19.820000    6.250000   20.790000 Al         1 MOL        1.5750 ****
1045 Si         15.420000    4.900000   23.520000 Si         1 MOL        2.1000 ****
1046 Si         12.780000    6.320000   23.520000 Si         1 MOL        2.1000 ****
1047 Si         12.780000    9.210000   23.520000 Si         1 MOL        2.1000 ****
1048 Si         15.420000   10.720000   23.520000 Si         1 MOL        2.1000 ****
1049 Si         13.660000   10.680000   18.060000 Si         1 MOL        2.1000 ****
1050 Si         16.300000    9.250000   18.060000 Si         1 MOL        2.1000 ****
1051 Si         16.300000    6.330000   18.060000 Si         1 MOL        2.1000 ****
1052 Si         13.660000    4.930000   18.060000 Si         1 MOL        2.1000 ****
1053  H         13.730000    3.550000   21.660000  H         1 MOL        0.4250 ****
1054  H         16.310000    7.510000   21.490000  H         1 MOL        0.4250 ****
1055  H         15.350000   12.150000   19.950000  H         1 MOL        0.4250 ****
1056  H         12.810000    7.820000   20.210000  H         1 MOL        0.4250 ****
1057  O         15.420000    3.410000   24.070000  O         1 MOL       -1.0500 ****
1058  O         14.100000    5.600000   24.070000  O         1 MOL       -1.0500 ****
1059  O         16.740000    5.650000   24.070000  O         1 MOL       -1.0500 ****
1060 Oh         12.780000    3.380000   21.850000  O         1 MOL       -0.9500 ****
1061  O         15.420000    4.970000   21.850000  O         1 MOL       -1.0500 ****
1062  O         12.780000    6.240000   21.850000  O         1 MOL       -1.0500 ****
1063  O         12.780000    7.780000   24.070000  O         1 MOL       -1.0500 ****
1064  O         16.740000    9.980000   24.070000  O         1 MOL       -1.0500 ****
1065  O         14.100000    9.970000   24.070000  O         1 MOL       -1.0500 ****
1066 Oh         15.420000    7.790000   21.850000  O         1 MOL       -0.9500 ****
1067  O         12.780000    9.400000   21.850000  O         1 MOL       -1.0500 ****
1068Omg         15.420000   10.640000   21.850000  O         1 MOL       -1.1808 ****
1069  O         13.660000   12.170000   17.510000  O         1 MOL       -1.0500 ****
1070  O         14.980000    9.920000   17.510000  O         1 MOL       -1.0500 ****
1071  O         12.340000   10.030000   17.510000  O         1 MOL       -1.0500 ****
1072Ohmg         16.300000   12.040000   19.730000  O         1 MOL       -1.0809 ****
1073  O         13.660000   10.560000   19.730000  O         1 MOL       -1.0500 ****
1074Omg         16.300000    9.320000   19.730000  O         1 MOL       -1.1808 ****
1075  O         16.300000    7.770000   17.510000  O         1 MOL       -1.0500 ****
1076  O         12.340000    5.590000   17.510000  O         1 MOL       -1.0500 ****
1077  O         14.980000    5.620000   17.510000  O         1 MOL       -1.0500 ****
1078 Oh         13.660000    7.800000   19.730000  O         1 MOL       -0.9500 ****
1079  O         16.300000    6.380000   19.730000  O         1 MOL       -1.0500 ****
1080  O         13.660000    5.070000   19.730000  O         1 MOL       -1.0500 ****
1081 Al         22.460000    4.920000   20.790000 Al         1 MOL        1.5750 ****
1082 Al         22.460000    1.930000   20.790000 Al         1 MOL        1.5750 ****
1083 Al         25.100000    9.350000   20.790000 Al         1 MOL        1.5750 ****
1084Mgo         25.100000    6.250000   20.790000 Mg         1 MOL        1.3600 ****
1085 Si         20.700000    4.900000   23.520000 Si         1 MOL        2.1000 ****
1086 Si         18.060000    6.320000   23.520000 Si         1 MOL        2.1000 ****
1087 Si         18.060000    9.210000   23.520000 Si         1 MOL        2.1000 ****
1088 Si         20.700000   10.720000   23.520000 Si         1 MOL        2.1000 ****
1089 Si         18.940000   10.680000   18.060000 Si         1 MOL        2.1000 ****
1090 Si         21.580000    9.250000   18.060000 Si         1 MOL        2.1000 ****
1091 Si         21.580000    6.330000   18.060000 Si         1 MOL        2.1000 ****
1092 Si         18.940000    4.930000   18.060000 Si         1 MOL        2.1000 ****
1093  H         19.010000    3.550000   21.660000  H         1 MOL        0.4250 ****
1094  H         21.590000    7.510000   21.490000  H         1 MOL        0.4250 ****
1095  H         20.630000   12.150000   19.950000  H         1 MOL        0.4250 ****
1096  H         18.090000    7.820000   20.210000  H         1 MOL        0.4250 ****
1097  O         20.700000    3.410000   24.070000  O         1 MOL       -1.0500 ****
1098  O         19.380000    5.600000   24.070000  O         1 MOL       -1.0500 ****
1099  O         22.020000    5.650000   24.070000  O         1 MOL       -1.0500 ****
1100Ohmg         18.060000    3.380000   21.850000  O         1 MOL       -1.0809 ****
1101  O         20.700000    4.970000   21.850000  O         1 MOL       -1.0500 ****
1102  O         18.060000    6.240000   21.850000  O         1 MOL       -1.0500 ****
1103  O         18.060000    7.780000   24.070000  O         1 MOL       -1.0500 ****
1104  O         22.020000    9.980000   24.070000  O         1 MOL       -1.0500 ****
1105  O         19.380000    9.970000   24.070000  O         1 MOL       -1.0500 ****
1106 Oh         20.700000    7.790000   21.850000  O         1 MOL       -0.9500 ****
1107Omg         18.060000    9.400000   21.850000  O         1 MOL       -1.1808 ****
1108  O         20.700000   10.640000   21.850000  O         1 MOL       -1.0500 ****
1109  O         18.940000   12.170000   17.510000  O         1 MOL       -1.0500 ****
1110  O         20.260000    9.920000   17.510000  O         1 MOL       -1.0500 ****
1111  O         17.620000   10.030000   17.510000  O         1 MOL       -1.0500 ****
1112 Oh         21.580000   12.040000   19.730000  O         1 MOL       -0.9500 ****
1113Omg         18.940000   10.560000   19.730000  O         1 MOL       -1.1808 ****
1114  O         21.580000    9.320000   19.730000  O         1 MOL       -1.0500 ****
1115  O         21.580000    7.770000   17.510000  O         1 MOL       -1.0500 ****
1116  O         17.620000    5.590000   17.510000  O         1 MOL       -1.0500 ****
1117  O         20.260000    5.620000   17.510000  O         1 MOL       -1.0500 ****
1118 Oh         18.940000    7.800000   19.730000  O         1 MOL       -0.9500 ****
1119  O         21.580000    6.380000   19.730000  O         1 MOL       -1.0500 ****
1120  O         18.940000    5.070000   19.730000  O         1 MOL       -1.0500 ****
1121 Al         27.740000    4.920000   20.790000 Al         1 MOL        1.5750 ****
1122 Al         27.740000    1.930000   20.790000 Al         1 MOL        1.5750 ****
1123 Al         30.380000    9.350000   20.790000 Al         1 MOL        1.5750 ****
1124 Al         30.380000    6.250000   20.790000 Al         1 MOL        1.5750 ****
1125 Si         25.980000    4.900000   23.520000 Si         1 MOL        2.1000 ****
1126 Si         23.340000    6.320000   23.520000 Si         1 MOL        2.1000 ****
1127 Si         23.340000    9.210000   23.520000 Si         1 MOL        2.1000 ****
1128 Si         25.980000   10.720000   23.520000 Si         1 MOL        2.1000 ****
1129 Si         24.220000   10.680000   18.060000 Si         1 MOL        2.1000 ****
1130 Si         26.860000    9.250000   18.060000 Si         1 MOL        2.1000 ****
1131 Si         26.860000    6.330000   18.060000 Si         1 MOL        2.1000 ****
1132 Si         24.220000    4.930000   18.060000 Si         1 MOL        2.1000 ****
1133  H         24.290000    3.550000   21.660000  H         1 MOL        0.4250 ****
1134  H         26.870000    7.510000   21.490000  H         1 MOL        0.4250 ****
1135  H         25.910000   12.150000   19.950000  H         1 MOL        0.4250 ****
1136  H         23.370000    7.820000   20.210000  H         1 MOL        0.4250 ****
1137  O         25.980000    3.410000   24.070000  O         1 MOL       -1.0500 ****
1138  O         24.660000    5.600000   24.070000  O         1 MOL       -1.0500 ****
1139  O         27.300000    5.650000   24.070000  O         1 MOL       -1.0500 ****
1140 Oh         23.340000    3.380000   21.850000  O         1 MOL       -0.9500 ****
1141Omg         25.980000    4.970000   21.850000  O         1 MOL       -1.1808 ****
1142Omg         23.340000    6.240000   21.850000  O         1 MOL       -1.1808 ****
1143  O         23.340000    7.780000   24.070000  O         1 MOL       -1.0500 ****
1144  O         27.300000    9.980000   24.070000  O         1 MOL       -1.0500 ****
1145  O         24.660000    9.970000   24.070000  O         1 MOL       -1.0500 ****
1146Ohmg         25.980000    7.790000   21.850000  O         1 MOL       -1.0809 ****
1147  O         23.340000    9.400000   21.850000  O         1 MOL       -1.0500 ****
1148  O         25.980000   10.640000   21.850000  O         1 MOL       -1.0500 ****
1149  O         24.220000   12.170000   17.510000  O         1 MOL       -1.0500 ****
1150  O         25.540000    9.920000   17.510000  O         1 MOL       -1.0500 ****
1151  O         22.900000   10.030000   17.510000  O         1 MOL       -1.0500 ****
1152 Oh         26.860000   12.040000   19.730000  O         1 MOL       -0.9500 ****
1153  O         24.220000   10.560000   19.730000  O         1 MOL       -1.0500 ****
1154  O         26.860000    9.320000   19.730000  O         1 MOL       -1.0500 ****
1155  O         26.860000    7.770000   17.510000  O         1 MOL       -1.0500 ****
1156  O         22.900000    5.590000   17.510000  O         1 MOL       -1.0500 ****
1157  O         25.540000    5.620000   17.510000  O         1 MOL       -1.0500 ****
1158Ohmg         24.220000    7.800000   19.730000  O         1 MOL       -1.0809 ****
1159Omg         26.860000    6.380000   19.730000  O         1 MOL       -1.1808 ****
1160Omg         24.220000    5.070000   19.730000  O         1 MOL       -1.1808 ****
1161 Al          1.340000    4.920000   20.790000 Al         1 MOL        1.5750 ****
1162 Al          1.340000    1.930000   20.790000 Al         1 MOL        1.5750 ****
1163 Al          3.980000    9.350000   20.790000 Al         1 MOL        1.5750 ****
1164 Al          3.980000    6.250000   20.790000 Al         1 MOL        1.5750 ****
1165 Si         31.260000    4.900000   23.520000 Si         1 MOL        2.1000 ****
1166 Si         28.620000    6.320000   23.520000 Si         1 MOL        2.1000 ****
1167 Si         28.620000    9.210000   23.520000 Si         1 MOL        2.1000 ****
1168 Si         31.260000   10.720000   23.520000 Si         1 MOL        2.1000 ****
1169 Si         29.500000   10.680000   18.060000 Si         1 MOL        2.1000 ****
1170 Si          0.460000    9.250000   18.060000 Si         1 MOL        2.1000 ****
1171 Si          0.460000    6.330000   18.060000 Si         1 MOL        2.1000 ****
1172 Si         29.500000    4.930000   18.060000 Si         1 MOL        2.1000 ****
1173  H         29.570000    3.550000   21.660000  H         1 MOL        0.4250 ****
1174  H          0.470000    7.510000   21.490000  H         1 MOL        0.4250 ****
1175  H         31.190000   12.150000   19.950000  H         1 MOL        0.4250 ****
1176  H         28.650000    7.820000   20.210000  H         1 MOL        0.4250 ****
1177  O         31.260000    3.410000   24.070000  O         1 MOL       -1.0500 ****
1178  O         29.940000    5.600000   24.070000  O         1 MOL       -1.0500 ****
1179  O          0.900000    5.650000   24.070000  O         1 MOL       -1.0500 ****
1180 Oh         28.620000    3.380000   21.850000  O         1 MOL       -0.9500 ****
1181  O         31.260000    4.970000   21.850000  O         1 MOL       -1.0500 ****
1182  O         28.620000    6.240000   21.850000  O         1 MOL       -1.0500 ****
1183  O         28.620000    7.780000   24.070000  O         1 MOL       -1.0500 ****
1184  O          0.900000    9.980000   24.070000  O         1 MOL       -1.0500 ****
1185  O         29.940000    9.970000   24.070000  O         1 MOL       -1.0500 ****
1186 Oh         31.260000    7.790000   21.850000  O         1 MOL       -0.9500 ****
1187  O         28.620000    9.400000   21.850000  O         1 MOL       -1.0500 ****
1188Omg         31.260000   10.640000   21.850000  O         1 MOL       -1.1808 ****
1189  O         29.500000   12.170000   17.510000  O         1 MOL       -1.0500 ****
1190  O         30.820000    9.920000   17.510000  O         1 MOL       -1.0500 ****
1191  O         28.180000   10.030000   17.510000  O         1 MOL       -1.0500 ****
1192Ohmg          0.460000   12.040000   19.730000  O         1 MOL       -1.0809 ****
1193  O         29.500000   10.560000   19.730000  O         1 MOL       -1.0500 ****
1194Omg          0.460000    9.320000   19.730000  O         1 MOL       -1.1808 ****
1195  O          0.460000    7.770000   17.510000  O         1 MOL       -1.0500 ****
1196  O         28.180000    5.590000   17.510000  O         1 MOL       -1.0500 ****
1197  O         30.820000    5.620000   17.510000  O         1 MOL       -1.0500 ****
1198 Oh         29.500000    7.800000   19.730000  O         1 MOL       -0.9500 ****
1199  O          0.460000    6.380000   19.730000  O         1 MOL       -1.0500 ****
1200  O         29.500000    5.070000   19.730000  O         1 MOL       -1.0500 ****
1201 Al          6.620000   14.060000   20.790000 Al         1 MOL        1.5750 ****
1202 Al          6.620000   11.070000   20.790000 Al         1 MOL        1.5750 ****
1203 Al          9.260000   18.490000   20.790000 Al         1 MOL        1.5750 ****
1204 Al          9.260000   15.390000   20.790000 Al         1 MOL        1.5750 ****
1205 Si          4.860000   14.040000   23.520000 Si         1 MOL        2.1000 ****
1206 Si          2.220000   15.460000   23.520000 Si         1 MOL        2.1000 ****
1207 Si          2.220000   18.350000   23.520000 Si         1 MOL        2.1000 ****
1208 Si          4.860000   19.860000   23.520000 Si         1 MOL        2.1000 ****
1209 Si          3.100000   19.820000   18.060000 Si         1 MOL        2.1000 ****
1210 Si          5.740000   18.390000   18.060000 Si         1 MOL        2.1000 ****
1211 Si          5.740000   15.470000   18.060000 Si         1 MOL        2.1000 ****
1212 Si          3.100000   14.070000   18.060000 Si         1 MOL        2.1000 ****
1213  H          3.170000   12.690000   21.660000  H         1 MOL        0.4250 ****
1214  H          5.750000   16.650000   21.490000  H         1 MOL        0.4250 ****
1215  H          4.790000   21.290000   19.950000  H         1 MOL        0.4250 ****
1216  H          2.250000   16.960000   20.210000  H         1 MOL        0.4250 ****
1217  O          4.860000   12.550000   24.070000  O         1 MOL       -1.0500 ****
1218  O          3.540000   14.740000   24.070000  O         1 MOL       -1.0500 ****
1219  O          6.180000   14.790000   24.070000  O         1 MOL       -1.0500 ****
1220Ohmg          2.220000   12.520000   21.850000  O         1 MOL       -1.0809 ****
1221  O          4.860000   14.110000   21.850000  O         1 MOL       -1.0500 ****
1222  O          2.220000   15.380000   21.850000  O         1 MOL       -1.0500 ****
1223  O          2.220000   16.920000   24.070000  O         1 MOL       -1.0500 ****
1224  O          6.180000   19.120000   24.070000  O         1 MOL       -1.0500 ****
1225  O          3.540000   19.110000   24.070000  O         1 MOL       -1.0500 ****
1226 Oh          4.860000   16.930000   21.850000  O         1 MOL       -0.9500 ****
1227  O          2.220000   18.540000   21.850000  O         1 MOL       -1.0500 ****
1228  O          4.860000   19.780000   21.850000  O         1 MOL       -1.0500 ****
1229  O          3.100000   21.310000   17.510000  O         1 MOL       -1.0500 ****
1230  O          4.420000   19.060000   17.510000  O         1 MOL       -1.0500 ****
1231  O          1.780000   19.170000   17.510000  O         1 MOL       -1.0500 ****
1232 Oh          5.740000   21.180000   19.730000  O         1 MOL       -0.9500 ****
1233  O          3.100000   19.700000   19.730000  O         1 MOL       -1.0500 ****
1234  O          5.740000   18.460000   19.730000  O         1 MOL       -1.0500 ****
1235  O          5.740000   16.910000   17.510000  O         1 MOL       -1.0500 ****
1236  O          1.780000   14.730000   17.510000  O         1 MOL       -1.0500 ****
1237  O          4.420000   14.760000   17.510000  O         1 MOL       -1.0500 ****
1238 Oh          3.100000   16.940000   19.730000  O         1 MOL       -0.9500 ****
1239  O          5.740000   15.520000   19.730000  O         1 MOL       -1.0500 ****
1240  O          3.100000   14.210000   19.730000  O         1 MOL       -1.0500 ****
1241Mgo         11.900000   14.060000   20.790000 Mg         1 MOL        1.3600 ****
1242 Al         11.900000   11.070000   20.790000 Al         1 MOL        1.5750 ****
1243 Al         14.540000   18.490000   20.790000 Al         1 MOL        1.5750 ****
1244 Al         14.540000   15.390000   20.790000 Al         1 MOL        1.5750 ****
1245 Si         10.140000   14.040000   23.520000 Si         1 MOL        2.1000 ****
1246 Si          7.500000   15.460000   23.520000 Si         1 MOL        2.1000 ****
1247 Si          7.500000   18.350000   23.520000 Si         1 MOL        2.1000 ****
1248 Si         10.140000   19.860000   23.520000 Si         1 MOL        2.1000 ****
1249 Si          8.380000   19.820000   18.060000 Si         1 MOL        2.1000 ****
1250 Si         11.020000   18.390000   18.060000 Si         1 MOL        2.1000 ****
1251 Si         11.020000   15.470000   18.060000 Si         1 MOL        2.1000 ****
1252 Si          8.380000   14.070000   18.060000 Si         1 MOL        2.1000 ****
1253  H          8.450000   12.690000   21.660000  H         1 MOL        0.4250 ****
1254  H         11.030000   16.650000   21.490000  H         1 MOL        0.4250 ****
1255  H         10.070000   21.290000   19.950000  H         1 MOL        0.4250 ****
1256  H          7.530000   16.960000   20.210000  H         1 MOL        0.4250 ****
1257  O         10.140000   12.550000   24.070000  O         1 MOL       -1.0500 ****
1258  O          8.820000   14.740000   24.070000  O         1 MOL       -1.0500 ****
1259  O         11.460000   14.790000   24.070000  O         1 MOL       -1.0500 ****
1260 Oh          7.500000   12.520000   21.850000  O         1 MOL       -0.9500 ****
1261Omg         10.140000   14.110000   21.850000  O         1 MOL       -1.1808 ****
1262  O          7.500000   15.380000   21.850000  O         1 MOL       -1.0500 ****
1263  O          7.500000   16.920000   24.070000  O         1 MOL       -1.0500 ****
1264  O         11.460000   19.120000   24.070000  O         1 MOL       -1.0500 ****
1265  O          8.820000   19.110000   24.070000  O         1 MOL       -1.0500 ****
1266 Oh         10.140000   16.930000   21.850000  O         1 MOL       -0.9500 ****
1267  O          7.500000   18.540000   21.850000  O         1 MOL       -1.0500 ****
1268Omg         10.140000   19.780000   21.850000  O         1 MOL       -1.1808 ****
1269  O          8.380000   21.310000   17.510000  O         1 MOL       -1.0500 ****
1270  O          9.700000   19.060000   17.510000  O         1 MOL       -1.0500 ****
1271  O          7.060000   19.170000   17.510000  O         1 MOL       -1.0500 ****
1272Ohmg         11.020000   21.180000   19.730000  O         1 MOL       -1.0809 ****
1273  O          8.380000   19.700000   19.730000  O         1 MOL       -1.0500 ****
1274Omg         11.020000   18.460000   19.730000  O         1 MOL       -1.1808 ****
1275  O         11.020000   16.910000   17.510000  O         1 MOL       -1.0500 ****
1276  O          7.060000   14.730000   17.510000  O         1 MOL       -1.0500 ****
1277  O          9.700000   14.760000   17.510000  O         1 MOL       -1.0500 ****
1278 Oh          8.380000   16.940000   19.730000  O         1 MOL       -0.9500 ****
1279Omg         11.020000   15.520000   19.730000  O         1 MOL       -1.1808 ****
1280  O          8.380000   14.210000   19.730000  O         1 MOL       -1.0500 ****
1281 Al         17.180000   14.060000   20.790000 Al         1 MOL        1.5750 ****
1282Mgo         17.180000   11.070000   20.790000 Mg         1 MOL        1.3600 ****
1283 Al         19.820000   18.490000   20.790000 Al         1 MOL        1.5750 ****
1284 Al         19.820000   15.390000   20.790000 Al         1 MOL        1.5750 ****
1285 Si         15.420000   14.040000   23.520000 Si         1 MOL        2.1000 ****
1286 Si         12.780000   15.460000   23.520000 Si         1 MOL        2.1000 ****
1287 Si         12.780000   18.350000   23.520000 Si         1 MOL        2.1000 ****
1288 Si         15.420000   19.860000   23.520000 Si         1 MOL        2.1000 ****
1289 Si         13.660000   19.820000   18.060000 Si         1 MOL        2.1000 ****
1290 Si         16.300000   18.390000   18.060000 Si         1 MOL        2.1000 ****
1291 Si         16.300000   15.470000   18.060000 Si         1 MOL        2.1000 ****
1292 Si         13.660000   14.070000   18.060000 Si         1 MOL        2.1000 ****
1293  H         13.730000   12.690000   21.660000  H         1 MOL        0.4250 ****
1294  H         16.310000   16.650000   21.490000  H         1 MOL        0.4250 ****
1295  H         15.350000   21.290000   19.950000  H         1 MOL        0.4250 ****
1296  H         12.810000   16.960000   20.210000  H         1 MOL        0.4250 ****
1297  O         15.420000   12.550000   24.070000  O         1 MOL       -1.0500 ****
1298  O         14.100000   14.740000   24.070000  O         1 MOL       -1.0500 ****
1299  O         16.740000   14.790000   24.070000  O         1 MOL       -1.0500 ****
1300Ohmg         12.780000   12.520000   21.850000  O         1 MOL       -1.0809 ****
1301  O         15.420000   14.110000   21.850000  O         1 MOL       -1.0500 ****
1302Omg         12.780000   15.380000   21.850000  O         1 MOL       -1.1808 ****
1303  O         12.780000   16.920000   24.070000  O         1 MOL       -1.0500 ****
1304  O         16.740000   19.120000   24.070000  O         1 MOL       -1.0500 ****
1305  O         14.100000   19.110000   24.070000  O         1 MOL       -1.0500 ****
1306 Oh         15.420000   16.930000   21.850000  O         1 MOL       -0.9500 ****
1307Omg         12.780000   18.540000   21.850000  O         1 MOL       -1.1808 ****
1308  O         15.420000   19.780000   21.850000  O         1 MOL       -1.0500 ****
1309  O         13.660000   21.310000   17.510000  O         1 MOL       -1.0500 ****
1310  O         14.980000   19.060000   17.510000  O         1 MOL       -1.0500 ****
1311  O         12.340000   19.170000   17.510000  O         1 MOL       -1.0500 ****
1312 Oh         16.300000   21.180000   19.730000  O         1 MOL       -0.9500 ****
1313Omg         13.660000   19.700000   19.730000  O         1 MOL       -1.1808 ****
1314  O         16.300000   18.460000   19.730000  O         1 MOL       -1.0500 ****
1315  O         16.300000   16.910000   17.510000  O         1 MOL       -1.0500 ****
1316  O         12.340000   14.730000   17.510000  O         1 MOL       -1.0500 ****
1317  O         14.980000   14.760000   17.510000  O         1 MOL       -1.0500 ****
1318 Oh         13.660000   16.940000   19.730000  O         1 MOL       -0.9500 ****
1319  O         16.300000   15.520000   19.730000  O         1 MOL       -1.0500 ****
1320Omg         13.660000   14.210000   19.730000  O         1 MOL       -1.1808 ****
1321 Al         22.460000   14.060000   20.790000 Al         1 MOL        1.5750 ****
1322 Al         22.460000   11.070000   20.790000 Al         1 MOL        1.5750 ****
1323 Al         25.100000   18.490000   20.790000 Al         1 MOL        1.5750 ****
1324 Al         25.100000   15.390000   20.790000 Al         1 MOL        1.5750 ****
1325 Si         20.700000   14.040000   23.520000 Si         1 MOL        2.1000 ****
1326 Si         18.060000   15.460000   23.520000 Si         1 MOL        2.1000 ****
1327 Si         18.060000   18.350000   23.520000 Si         1 MOL        2.1000 ****
1328 Si         20.700000   19.860000   23.520000 Si         1 MOL        2.1000 ****
1329 Si         18.940000   19.820000   18.060000 Si         1 MOL        2.1000 ****
1330 Si         21.580000   18.390000   18.060000 Si         1 MOL        2.1000 ****
1331 Si         21.580000   15.470000   18.060000 Si         1 MOL        2.1000 ****
1332 Si         18.940000   14.070000   18.060000 Si         1 MOL        2.1000 ****
1333  H         19.010000   12.690000   21.660000  H         1 MOL        0.4250 ****
1334  H         21.590000   16.650000   21.490000  H         1 MOL        0.4250 ****
1335  H         20.630000   21.290000   19.950000  H         1 MOL        0.4250 ****
1336  H         18.090000   16.960000   20.210000  H         1 MOL        0.4250 ****
1337  O         20.700000   12.550000   24.070000  O         1 MOL       -1.0500 ****
1338  O         19.380000   14.740000   24.070000  O         1 MOL       -1.0500 ****
1339  O         22.020000   14.790000   24.070000  O         1 MOL       -1.0500 ****
1340Ohmg         18.060000   12.520000   21.850000  O         1 MOL       -1.0809 ****
1341  O         20.700000   14.110000   21.850000  O         1 MOL       -1.0500 ****
1342  O         18.060000   15.380000   21.850000  O         1 MOL       -1.0500 ****
1343  O         18.060000   16.920000   24.070000  O         1 MOL       -1.0500 ****
1344  O         22.020000   19.120000   24.070000  O         1 MOL       -1.0500 ****
1345  O         19.380000   19.110000   24.070000  O         1 MOL       -1.0500 ****
1346 Oh         20.700000   16.930000   21.850000  O         1 MOL       -0.9500 ****
1347  O         18.060000   18.540000   21.850000  O         1 MOL       -1.0500 ****
1348Omg         20.700000   19.780000   21.850000  O         1 MOL       -1.1808 ****
1349  O         18.940000   21.310000   17.510000  O         1 MOL       -1.0500 ****
1350  O         20.260000   19.060000   17.510000  O         1 MOL       -1.0500 ****
1351  O         17.620000   19.170000   17.510000  O         1 MOL       -1.0500 ****
1352Ohmg         21.580000   21.180000   19.730000  O         1 MOL       -1.0809 ****
1353  O         18.940000   19.700000   19.730000  O         1 MOL       -1.0500 ****
1354Omg         21.580000   18.460000   19.730000  O         1 MOL       -1.1808 ****
1355  O         21.580000   16.910000   17.510000  O         1 MOL       -1.0500 ****
1356  O         17.620000   14.730000   17.510000  O         1 MOL       -1.0500 ****
1357  O         20.260000   14.760000   17.510000  O         1 MOL       -1.0500 ****
1358 Oh         18.940000   16.940000   19.730000  O         1 MOL       -0.9500 ****
1359  O         21.580000   15.520000   19.730000  O         1 MOL       -1.0500 ****
1360  O         18.940000   14.210000   19.730000  O         1 MOL       -1.0500 ****
1361 Al         27.740000   14.060000   20.790000 Al         1 MOL        1.5750 ****
1362 Al         27.740000   11.070000   20.790000 Al         1 MOL        1.5750 ****
1363Mgo         30.380000   18.490000   20.790000 Mg         1 MOL        1.3600 ****
1364 Al         30.380000   15.390000   20.790000 Al         1 MOL        1.5750 ****
1365 Si         25.980000   14.040000   23.520000 Si         1 MOL        2.1000 ****
1366 Si         23.340000   15.460000   23.520000 Si         1 MOL        2.1000 ****
1367 Si         23.340000   18.350000   23.520000 Si         1 MOL        2.1000 ****
1368 Si         25.980000   19.860000   23.520000 Si         1 MOL        2.1000 ****
1369 Si         24.220000   19.820000   18.060000 Si         1 MOL        2.1000 ****
1370 Si         26.860000   18.390000   18.060000 Si         1 MOL        2.1000 ****
1371 Si         26.860000   15.470000   18.060000 Si         1 MOL        2.1000 ****
1372 Si         24.220000   14.070000   18.060000 Si         1 MOL        2.1000 ****
1373  H         24.290000   12.690000   21.660000  H         1 MOL        0.4250 ****
1374  H         26.870000   16.650000   21.490000  H         1 MOL        0.4250 ****
1375  H         25.910000   21.290000   19.950000  H         1 MOL        0.4250 ****
1376  H         23.370000   16.960000   20.210000  H         1 MOL        0.4250 ****
1377  O         25.980000   12.550000   24.070000  O         1 MOL       -1.0500 ****
1378  O         24.660000   14.740000   24.070000  O         1 MOL       -1.0500 ****
1379  O         27.300000   14.790000   24.070000  O         1 MOL       -1.0500 ****
1380 Oh         23.340000   12.520000   21.850000  O         1 MOL       -0.9500 ****
1381  O         25.980000   14.110000   21.850000  O         1 MOL       -1.0500 ****
1382  O         23.340000   15.380000   21.850000  O         1 MOL       -1.0500 ****
1383  O         23.340000   16.920000   24.070000  O         1 MOL       -1.0500 ****
1384  O         27.300000   19.120000   24.070000  O         1 MOL       -1.0500 ****
1385  O         24.660000   19.110000   24.070000  O         1 MOL       -1.0500 ****
1386 Oh         25.980000   16.930000   21.850000  O         1 MOL       -0.9500 ****
1387Omg         23.340000   18.540000   21.850000  O         1 MOL       -1.1808 ****
1388  O         25.980000   19.780000   21.850000  O         1 MOL       -1.0500 ****
1389  O         24.220000   21.310000   17.510000  O         1 MOL       -1.0500 ****
1390  O         25.540000   19.060000   17.510000  O         1 MOL       -1.0500 ****
1391  O         22.900000   19.170000   17.510000  O         1 MOL       -1.0500 ****
1392 Oh         26.860000   21.180000   19.730000  O         1 MOL       -0.9500 ****
1393Omg         24.220000   19.700000   19.730000  O         1 MOL       -1.1808 ****
1394  O         26.860000   18.460000   19.730000  O         1 MOL       -1.0500 ****
1395  O         26.860000   16.910000   17.510000  O         1 MOL       -1.0500 ****
1396  O         22.900000   14.730000   17.510000  O         1 MOL       -1.0500 ****
1397  O         25.540000   14.760000   17.510000  O         1 MOL       -1.0500 ****
1398 Oh         24.220000   16.940000   19.730000  O         1 MOL       -0.9500 ****
1399  O         26.860000   15.520000   19.730000  O         1 MOL       -1.0500 ****
1400  O         24.220000   14.210000   19.730000  O         1 MOL       -1.0500 ****
1401 Al          1.340000   14.060000   20.790000 Al         1 MOL        1.5750 ****
1402Mgo          1.340000   11.070000   20.790000 Mg         1 MOL        1.3600 ****
1403 Al          3.980000   18.490000   20.790000 Al         1 MOL        1.5750 ****
1404 Al          3.980000   15.390000   20.790000 Al         1 MOL        1.5750 ****
1405 Si         31.260000   14.040000   23.520000 Si         1 MOL        2.1000 ****
1406 Si         28.620000   15.460000   23.520000 Si         1 MOL        2.1000 ****
1407 Si         28.620000   18.350000   23.520000 Si         1 MOL        2.1000 ****
1408 Si         31.260000   19.860000   23.520000 Si         1 MOL        2.1000 ****
1409 Si         29.500000   19.820000   18.060000 Si         1 MOL        2.1000 ****
1410 Si          0.460000   18.390000   18.060000 Si         1 MOL        2.1000 ****
1411 Si          0.460000   15.470000   18.060000 Si         1 MOL        2.1000 ****
1412 Si         29.500000   14.070000   18.060000 Si         1 MOL        2.1000 ****
1413  H         29.570000   12.690000   21.660000  H         1 MOL        0.4250 ****
1414  H          0.470000   16.650000   21.490000  H         1 MOL        0.4250 ****
1415  H         31.190000   21.290000   19.950000  H         1 MOL        0.4250 ****
1416  H         28.650000   16.960000   20.210000  H         1 MOL        0.4250 ****
1417  O         31.260000   12.550000   24.070000  O         1 MOL       -1.0500 ****
1418  O         29.940000   14.740000   24.070000  O         1 MOL       -1.0500 ****
1419  O          0.900000   14.790000   24.070000  O         1 MOL       -1.0500 ****
1420 Oh         28.620000   12.520000   21.850000  O         1 MOL       -0.9500 ****
1421  O         31.260000   14.110000   21.850000  O         1 MOL       -1.0500 ****
1422  O         28.620000   15.380000   21.850000  O         1 MOL       -1.0500 ****
1423  O         28.620000   16.920000   24.070000  O         1 MOL       -1.0500 ****
1424  O          0.900000   19.120000   24.070000  O         1 MOL       -1.0500 ****
1425  O         29.940000   19.110000   24.070000  O         1 MOL       -1.0500 ****
1426Ohmg         31.260000   16.930000   21.850000  O         1 MOL       -1.0809 ****
1427Omg         28.620000   18.540000   21.850000  O         1 MOL       -1.1808 ****
1428Omg         31.260000   19.780000   21.850000  O         1 MOL       -1.1808 ****
1429  O         29.500000   21.310000   17.510000  O         1 MOL       -1.0500 ****
1430  O         30.820000   19.060000   17.510000  O         1 MOL       -1.0500 ****
1431  O         28.180000   19.170000   17.510000  O         1 MOL       -1.0500 ****
1432 Oh          0.460000   21.180000   19.730000  O         1 MOL       -0.9500 ****
1433Omg         29.500000   19.700000   19.730000  O         1 MOL       -1.1808 ****
1434Omg          0.460000   18.460000   19.730000  O         1 MOL       -1.1808 ****
1435  O          0.460000   16.910000   17.510000  O         1 MOL       -1.0500 ****
1436  O         28.180000   14.730000   17.510000  O         1 MOL       -1.0500 ****
1437  O         30.820000   14.760000   17.510000  O         1 MOL       -1.0500 ****
1438Ohmg         29.500000   16.940000   19.730000  O         1 MOL       -1.0809 ****
1439  O          0.460000   15.520000   19.730000  O         1 MOL       -1.0500 ****
1440  O         29.500000   14.210000   19.730000  O         1 MOL       -1.0500 ****
1441 Al          6.620000   23.200000   20.790000 Al         1 MOL        1.5750 ****
1442 Al          6.620000   20.210000   20.790000 Al         1 MOL        1.5750 ****
1443Mgo          9.260000   27.630000   20.790000 Mg         1 MOL        1.3600 ****
1444 Al          9.260000   24.530000   20.790000 Al         1 MOL        1.5750 ****
1445 Si          4.860000   23.180000   23.520000 Si         1 MOL        2.1000 ****
1446 Si          2.220000   24.600000   23.520000 Si         1 MOL        2.1000 ****
1447 Si          2.220000   27.490000   23.520000 Si         1 MOL        2.1000 ****
1448 Si          4.860000   29.000000   23.520000 Si         1 MOL        2.1000 ****
1449 Si          3.100000   28.960000   18.060000 Si         1 MOL        2.1000 ****
1450 Si          5.740000   27.530000   18.060000 Si         1 MOL        2.1000 ****
1451 Si          5.740000   24.610000   18.060000 Si         1 MOL        2.1000 ****
1452 Si          3.100000   23.210000   18.060000 Si         1 MOL        2.1000 ****
1453  H          3.170000   21.830000   21.660000  H         1 MOL        0.4250 ****
1454  H          5.750000   25.790000   21.490000  H         1 MOL        0.4250 ****
1455  H          4.790000   30.430000   19.950000  H         1 MOL        0.4250 ****
1456  H          2.250000   26.100000   20.210000  H         1 MOL        0.4250 ****
1457  O          4.860000   21.690000   24.070000  O         1 MOL       -1.0500 ****
1458  O          3.540000   23.880000   24.070000  O         1 MOL       -1.0500 ****
1459  O          6.180000   23.930000   24.070000  O         1 MOL       -1.0500 ****
1460 Oh          2.220000   21.660000   21.850000  O         1 MOL       -0.9500 ****
1461Omg          4.860000   23.250000   21.850000  O         1 MOL       -1.1808 ****
1462Omg          2.220000   24.520000   21.850000  O         1 MOL       -1.1808 ****
1463  O          2.220000   26.060000   24.070000  O         1 MOL       -1.0500 ****
1464  O          6.180000   28.260000   24.070000  O         1 MOL       -1.0500 ****
1465  O          3.540000   28.250000   24.070000  O         1 MOL       -1.0500 ****
1466Ohmg          4.860000   26.070000   21.850000  O         1 MOL       -1.0809 ****
1467  O          2.220000   27.680000   21.850000  O         1 MOL       -1.0500 ****
1468  O          4.860000   28.920000   21.850000  O         1 MOL       -1.0500 ****
1469  O          3.100000   30.450000   17.510000  O         1 MOL       -1.0500 ****
1470  O          4.420000   28.200000   17.510000  O         1 MOL       -1.0500 ****
1471  O          1.780000   28.310000   17.510000  O         1 MOL       -1.0500 ****
1472 Oh          5.740000   30.320000   19.730000  O         1 MOL       -0.9500 ****
1473  O          3.100000   28.840000   19.730000  O         1 MOL       -1.0500 ****
1474  O          5.740000   27.600000   19.730000  O         1 MOL       -1.0500 ****
1475  O          5.740000   26.050000   17.510000  O         1 MOL       -1.0500 ****
1476  O          1.780000   23.870000   17.510000  O         1 MOL       -1.0500 ****
1477  O          4.420000   23.900000   17.510000  O         1 MOL       -1.0500 ****
1478Ohmg          3.100000   26.080000   19.730000  O         1 MOL       -1.0809 ****
1479Omg          5.740000   24.660000   19.730000  O         1 MOL       -1.1808 ****
1480Omg          3.100000   23.350000   19.730000  O         1 MOL       -1.1808 ****
1481 Al         11.900000   23.200000   20.790000 Al         1 MOL        1.5750 ****
1482Mgo         11.900000   20.210000   20.790000 Mg         1 MOL        1.3600 ****
1483 Al         14.540000   27.630000   20.790000 Al         1 MOL        1.5750 ****
1484 Al         14.540000   24.530000   20.790000 Al         1 MOL        1.5750 ****
1485 Si         10.140000   23.180000   23.520000 Si         1 MOL        2.1000 ****
1486 Si          7.500000   24.600000   23.520000 Si         1 MOL        2.1000 ****
1487 Si          7.500000   27.490000   23.520000 Si         1 MOL        2.1000 ****
1488 Si         10.140000   29.000000   23.520000 Si         1 MOL        2.1000 ****
1489 Si          8.380000   28.960000   18.060000 Si         1 MOL        2.1000 ****
1490 Si         11.020000   27.530000   18.060000 Si         1 MOL        2.1000 ****
1491 Si         11.020000   24.610000   18.060000 Si         1 MOL        2.1000 ****
1492 Si          8.380000   23.210000   18.060000 Si         1 MOL        2.1000 ****
1493  H          8.450000   21.830000   21.660000  H         1 MOL        0.4250 ****
1494  H         11.030000   25.790000   21.490000  H         1 MOL        0.4250 ****
1495  H         10.070000   30.430000   19.950000  H         1 MOL        0.4250 ****
1496  H          7.530000   26.100000   20.210000  H         1 MOL        0.4250 ****
1497  O         10.140000   21.690000   24.070000  O         1 MOL       -1.0500 ****
1498  O          8.820000   23.880000   24.070000  O         1 MOL       -1.0500 ****
1499  O         11.460000   23.930000   24.070000  O         1 MOL       -1.0500 ****
1500 Oh          7.500000   21.660000   21.850000  O         1 MOL       -0.9500 ****
1501  O         10.140000   23.250000   21.850000  O         1 MOL       -1.0500 ****
1502  O          7.500000   24.520000   21.850000  O         1 MOL       -1.0500 ****
1503  O          7.500000   26.060000   24.070000  O         1 MOL       -1.0500 ****
1504  O         11.460000   28.260000   24.070000  O         1 MOL       -1.0500 ****
1505  O          8.820000   28.250000   24.070000  O         1 MOL       -1.0500 ****
1506Ohmg         10.140000   26.070000   21.850000  O         1 MOL       -1.0809 ****
1507Omg          7.500000   27.680000   21.850000  O         1 MOL       -1.1808 ****
1508Omg         10.140000   28.920000   21.850000  O         1 MOL       -1.1808 ****
1509  O          8.380000   30.450000   17.510000  O         1 MOL       -1.0500 ****
1510  O          9.700000   28.200000   17.510000  O         1 MOL       -1.0500 ****
1511  O          7.060000   28.310000   17.510000  O         1 MOL       -1.0500 ****
1512 Oh         11.020000   30.320000   19.730000  O         1 MOL       -0.9500 ****
1513Omg          8.380000   28.840000   19.730000  O         1 MOL       -1.1808 ****
1514Omg         11.020000   27.600000   19.730000  O         1 MOL       -1.1808 ****
1515  O         11.020000   26.050000   17.510000  O         1 MOL       -1.0500 ****
1516  O          7.060000   23.870000   17.510000  O         1 MOL       -1.0500 ****
1517  O          9.700000   23.900000   17.510000  O         1 MOL       -1.0500 ****
1518Ohmg          8.380000   26.080000   19.730000  O         1 MOL       -1.0809 ****
1519  O         11.020000   24.660000   19.730000  O         1 MOL       -1.0500 ****
1520  O          8.380000   23.350000   19.730000  O         1 MOL       -1.0500 ****
1521 Al         17.180000   23.200000   20.790000 Al         1 MOL        1.5750 ****
1522 Al         17.180000   20.210000   20.790000 Al         1 MOL        1.5750 ****
1523 Al         19.820000   27.630000   20.790000 Al         1 MOL        1.5750 ****
1524 Al         19.820000   24.530000   20.790000 Al         1 MOL        1.5750 ****
1525 Si         15.420000   23.180000   23.520000 Si         1 MOL        2.1000 ****
1526 Si         12.780000   24.600000   23.520000 Si         1 MOL        2.1000 ****
1527 Si         12.780000   27.490000   23.520000 Si         1 MOL        2.1000 ****
1528 Si         15.420000   29.000000   23.520000 Si         1 MOL        2.1000 ****
1529 Si         13.660000   28.960000   18.060000 Si         1 MOL        2.1000 ****
1530 Si         16.300000   27.530000   18.060000 Si         1 MOL        2.1000 ****
1531 Si         16.300000   24.610000   18.060000 Si         1 MOL        2.1000 ****
1532 Si         13.660000   23.210000   18.060000 Si         1 MOL        2.1000 ****
1533  H         13.730000   21.830000   21.660000  H         1 MOL        0.4250 ****
1534  H         16.310000   25.790000   21.490000  H         1 MOL        0.4250 ****
1535  H         15.350000   30.430000   19.950000  H         1 MOL        0.4250 ****
1536  H         12.810000   26.100000   20.210000  H         1 MOL        0.4250 ****
1537  O         15.420000   21.690000   24.070000  O         1 MOL       -1.0500 ****
1538  O         14.100000   23.880000   24.070000  O         1 MOL       -1.0500 ****
1539  O         16.740000   23.930000   24.070000  O         1 MOL       -1.0500 ****
1540Ohmg         12.780000   21.660000   21.850000  O         1 MOL       -1.0809 ****
1541  O         15.420000   23.250000   21.850000  O         1 MOL       -1.0500 ****
1542  O         12.780000   24.520000   21.850000  O         1 MOL       -1.0500 ****
1543  O         12.780000   26.060000   24.070000  O         1 MOL       -1.0500 ****
1544  O         16.740000   28.260000   24.070000  O         1 MOL       -1.0500 ****
1545  O         14.100000   28.250000   24.070000  O         1 MOL       -1.0500 ****
1546 Oh         15.420000   26.070000   21.850000  O         1 MOL       -0.9500 ****
1547  O         12.780000   27.680000   21.850000  O         1 MOL       -1.0500 ****
1548Omg         15.420000   28.920000   21.850000  O         1 MOL       -1.1808 ****
1549  O         13.660000   30.450000   17.510000  O         1 MOL       -1.0500 ****
1550  O         14.980000   28.200000   17.510000  O         1 MOL       -1.0500 ****
1551  O         12.340000   28.310000   17.510000  O         1 MOL       -1.0500 ****
1552Ohmg         16.300000   30.320000   19.730000  O         1 MOL       -1.0809 ****
1553  O         13.660000   28.840000   19.730000  O         1 MOL       -1.0500 ****
1554Omg         16.300000   27.600000   19.730000  O         1 MOL       -1.1808 ****
1555  O         16.300000   26.050000   17.510000  O         1 MOL       -1.0500 ****
1556  O         12.340000   23.870000   17.510000  O         1 MOL       -1.0500 ****
1557  O         14.980000   23.900000   17.510000  O         1 MOL       -1.0500 ****
1558 Oh         13.660000   26.080000   19.730000  O         1 MOL       -0.9500 ****
1559  O         16.300000   24.660000   19.730000  O         1 MOL       -1.0500 ****
1560  O         13.660000   23.350000   19.730000  O         1 MOL       -1.0500 ****
1561 Al         22.460000   23.200000   20.790000 Al         1 MOL        1.5750 ****
1562Mgo         22.460000   20.210000   20.790000 Mg         1 MOL        1.3600 ****
1563 Al         25.100000   27.630000   20.790000 Al         1 MOL        1.5750 ****
1564 Al         25.100000   24.530000   20.790000 Al         1 MOL        1.5750 ****
1565 Si         20.700000   23.180000   23.520000 Si         1 MOL        2.1000 ****
1566 Si         18.060000   24.600000   23.520000 Si         1 MOL        2.1000 ****
1567 Si         18.060000   27.490000   23.520000 Si         1 MOL        2.1000 ****
1568 Si         20.700000   29.000000   23.520000 Si         1 MOL        2.1000 ****
1569 Si         18.940000   28.960000   18.060000 Si         1 MOL        2.1000 ****
1570 Si         21.580000   27.530000   18.060000 Si         1 MOL        2.1000 ****
1571 Si         21.580000   24.610000   18.060000 Si         1 MOL        2.1000 ****
1572 Si         18.940000   23.210000   18.060000 Si         1 MOL        2.1000 ****
1573  H         19.010000   21.830000   21.660000  H         1 MOL        0.4250 ****
1574  H         21.590000   25.790000   21.490000  H         1 MOL        0.4250 ****
1575  H         20.630000   30.430000   19.950000  H         1 MOL        0.4250 ****
1576  H         18.090000   26.100000   20.210000  H         1 MOL        0.4250 ****
1577  O         20.700000   21.690000   24.070000  O         1 MOL       -1.0500 ****
1578  O         19.380000   23.880000   24.070000  O         1 MOL       -1.0500 ****
1579  O         22.020000   23.930000   24.070000  O         1 MOL       -1.0500 ****
1580 Oh         18.060000   21.660000   21.850000  O         1 MOL       -0.9500 ****
1581  O         20.700000   23.250000   21.850000  O         1 MOL       -1.0500 ****
1582  O         18.060000   24.520000   21.850000  O         1 MOL       -1.0500 ****
1583  O         18.060000   26.060000   24.070000  O         1 MOL       -1.0500 ****
1584  O         22.020000   28.260000   24.070000  O         1 MOL       -1.0500 ****
1585  O         19.380000   28.250000   24.070000  O         1 MOL       -1.0500 ****
1586 Oh         20.700000   26.070000   21.850000  O         1 MOL       -0.9500 ****
1587Omg         18.060000   27.680000   21.850000  O         1 MOL       -1.1808 ****
1588  O         20.700000   28.920000   21.850000  O         1 MOL       -1.0500 ****
1589  O         18.940000   30.450000   17.510000  O         1 MOL       -1.0500 ****
1590  O         20.260000   28.200000   17.510000  O         1 MOL       -1.0500 ****
1591  O         17.620000   28.310000   17.510000  O         1 MOL       -1.0500 ****
1592Ohmg         21.580000   30.320000   19.730000  O         1 MOL       -1.0809 ****
1593Omg         18.940000   28.840000   19.730000  O         1 MOL       -1.1808 ****
1594  O         21.580000   27.600000   19.730000  O         1 MOL       -1.0500 ****
1595  O         21.580000   26.050000   17.510000  O         1 MOL       -1.0500 ****
1596  O         17.620000   23.870000   17.510000  O         1 MOL       -1.0500 ****
1597  O         20.260000   23.900000   17.510000  O         1 MOL       -1.0500 ****
1598 Oh         18.940000   26.080000   19.730000  O         1 MOL       -0.9500 ****
1599  O         21.580000   24.660000   19.730000  O         1 MOL       -1.0500 ****
1600  O         18.940000   23.350000   19.730000  O         1 MOL       -1.0500 ****
1601 Al         27.740000   23.200000   20.790000 Al         1 MOL        1.5750 ****
1602 Al         27.740000   20.210000   20.790000 Al         1 MOL        1.5750 ****
1603Mgo         30.380000   27.630000   20.790000 Mg         1 MOL        1.3600 ****
1604 Al         30.380000   24.530000   20.790000 Al         1 MOL        1.5750 ****
1605 Si         25.980000   23.180000   23.520000 Si         1 MOL        2.1000 ****
1606 Si         23.340000   24.600000   23.520000 Si         1 MOL        2.1000 ****
1607 Si         23.340000   27.490000   23.520000 Si         1 MOL        2.1000 ****
1608 Si         25.980000   29.000000   23.520000 Si         1 MOL        2.1000 ****
1609 Si         24.220000   28.960000   18.060000 Si         1 MOL        2.1000 ****
1610 Si         26.860000   27.530000   18.060000 Si         1 MOL        2.1000 ****
1611 Si         26.860000   24.610000   18.060000 Si         1 MOL        2.1000 ****
1612 Si         24.220000   23.210000   18.060000 Si         1 MOL        2.1000 ****
1613  H         24.290000   21.830000   21.660000  H         1 MOL        0.4250 ****
1614  H         26.870000   25.790000   21.490000  H         1 MOL        0.4250 ****
1615  H         25.910000   30.430000   19.950000  H         1 MOL        0.4250 ****
1616  H         23.370000   26.100000   20.210000  H         1 MOL        0.4250 ****
1617  O         25.980000   21.690000   24.070000  O         1 MOL       -1.0500 ****
1618  O         24.660000   23.880000   24.070000  O         1 MOL       -1.0500 ****
1619  O         27.300000   23.930000   24.070000  O         1 MOL       -1.0500 ****
1620Ohmg         23.340000   21.660000   21.850000  O         1 MOL       -1.0809 ****
1621  O         25.980000   23.250000   21.850000  O         1 MOL       -1.0500 ****
1622  O         23.340000   24.520000   21.850000  O         1 MOL       -1.0500 ****
1623  O         23.340000   26.060000   24.070000  O         1 MOL       -1.0500 ****
1624  O         27.300000   28.260000   24.070000  O         1 MOL       -1.0500 ****
1625  O         24.660000   28.250000   24.070000  O         1 MOL       -1.0500 ****
1626 Oh         25.980000   26.070000   21.850000  O         1 MOL       -0.9500 ****
1627  O         23.340000   27.680000   21.850000  O         1 MOL       -1.0500 ****
1628  O         25.980000   28.920000   21.850000  O         1 MOL       -1.0500 ****
1629  O         24.220000   30.450000   17.510000  O         1 MOL       -1.0500 ****
1630  O         25.540000   28.200000   17.510000  O         1 MOL       -1.0500 ****
1631  O         22.900000   28.310000   17.510000  O         1 MOL       -1.0500 ****
1632 Oh         26.860000   30.320000   19.730000  O         1 MOL       -0.9500 ****
1633  O         24.220000   28.840000   19.730000  O         1 MOL       -1.0500 ****
1634  O         26.860000   27.600000   19.730000  O         1 MOL       -1.0500 ****
1635  O         26.860000   26.050000   17.510000  O         1 MOL       -1.0500 ****
1636  O         22.900000   23.870000   17.510000  O         1 MOL       -1.0500 ****
1637  O         25.540000   23.900000   17.510000  O         1 MOL       -1.0500 ****
1638 Oh         24.220000   26.080000   19.730000  O         1 MOL       -0.9500 ****
1639  O         26.860000   24.660000   19.730000  O         1 MOL       -1.0500 ****
1640  O         24.220000   23.350000   19.730000  O         1 MOL       -1.0500 ****
1641 Al          1.340000   23.200000   20.790000 Al         1 MOL        1.5750 ****
1642 Al          1.340000   20.210000   20.790000 Al         1 MOL        1.5750 ****
1643 Al          3.980000   27.630000   20.790000 Al         1 MOL        1.5750 ****
1644Mgo          3.980000   24.530000   20.790000 Mg         1 MOL        1.3600 ****
1645 Si         31.260000   23.180000   23.520000 Si         1 MOL        2.1000 ****
1646 Si         28.620000   24.600000   23.520000 Si         1 MOL        2.1000 ****
1647 Si         28.620000   27.490000   23.520000 Si         1 MOL        2.1000 ****
1648 Si         31.260000   29.000000   23.520000 Si         1 MOL        2.1000 ****
1649 Si         29.500000   28.960000   18.060000 Si         1 MOL        2.1000 ****
1650 Si          0.460000   27.530000   18.060000 Si         1 MOL        2.1000 ****
1651 Si          0.460000   24.610000   18.060000 Si         1 MOL        2.1000 ****
1652 Si         29.500000   23.210000   18.060000 Si         1 MOL        2.1000 ****
1653  H         29.570000   21.830000   21.660000  H         1 MOL        0.4250 ****
1654  H          0.470000   25.790000   21.490000  H         1 MOL        0.4250 ****
1655  H         31.190000   30.430000   19.950000  H         1 MOL        0.4250 ****
1656  H         28.650000   26.100000   20.210000  H         1 MOL        0.4250 ****
1657  O         31.260000   21.690000   24.070000  O         1 MOL       -1.0500 ****
1658  O         29.940000   23.880000   24.070000  O         1 MOL       -1.0500 ****
1659  O          0.900000   23.930000   24.070000  O         1 MOL       -1.0500 ****
1660 Oh         28.620000   21.660000   21.850000  O         1 MOL       -0.9500 ****
1661  O         31.260000   23.250000   21.850000  O         1 MOL       -1.0500 ****
1662  O         28.620000   24.520000   21.850000  O         1 MOL       -1.0500 ****
1663  O         28.620000   26.060000   24.070000  O         1 MOL       -1.0500 ****
1664  O          0.900000   28.260000   24.070000  O         1 MOL       -1.0500 ****
1665  O         29.940000   28.250000   24.070000  O         1 MOL       -1.0500 ****
1666Ohmg         31.260000   26.070000   21.850000  O         1 MOL       -1.0809 ****
1667Omg         28.620000   27.680000   21.850000  O         1 MOL       -1.1808 ****
1668Omg         31.260000   28.920000   21.850000  O         1 MOL       -1.1808 ****
1669  O         29.500000   30.450000   17.510000  O         1 MOL       -1.0500 ****
1670  O         30.820000   28.200000   17.510000  O         1 MOL       -1.0500 ****
1671  O         28.180000   28.310000   17.510000  O         1 MOL       -1.0500 ****
1672 Oh          0.460000   30.320000   19.730000  O         1 MOL       -0.9500 ****
1673Omg         29.500000   28.840000   19.730000  O         1 MOL       -1.1808 ****
1674Omg          0.460000   27.600000   19.730000  O         1 MOL       -1.1808 ****
1675  O          0.460000   26.050000   17.510000  O         1 MOL       -1.0500 ****
1676  O         28.180000   23.870000   17.510000  O         1 MOL       -1.0500 ****
1677  O         30.820000   23.900000   17.510000  O         1 MOL       -1.0500 ****
1678Ohmg         29.500000   26.080000   19.730000  O         1 MOL       -1.0809 ****
1679  O          0.460000   24.660000   19.730000  O         1 MOL       -1.0500 ****
1680  O         29.500000   23.350000   19.730000  O         1 MOL       -1.0500 ****
1681 Al          6.620000   32.340000   20.790000 Al         1 MOL        1.5750 ****
1682 Al          6.620000   29.350000   20.790000 Al         1 MOL        1.5750 ****
1683 Al          9.260000    0.210000   20.790000 Al         1 MOL        1.5750 ****
1684Mgo          9.260000   33.670000   20.790000 Mg         1 MOL        1.3600 ****
1685 Si          4.860000   32.320000   23.520000 Si         1 MOL        2.1000 ****
1686 Si          2.220000   33.740000   23.520000 Si         1 MOL        2.1000 ****
1687 Si          2.220000    0.070000   23.520000 Si         1 MOL        2.1000 ****
1688 Si          4.860000    1.580000   23.520000 Si         1 MOL        2.1000 ****
1689 Si          3.100000    1.540000   18.060000 Si         1 MOL        2.1000 ****
1690 Si          5.740000    0.110000   18.060000 Si         1 MOL        2.1000 ****
1691 Si          5.740000   33.750000   18.060000 Si         1 MOL        2.1000 ****
1692 Si          3.100000   32.350000   18.060000 Si         1 MOL        2.1000 ****
1693  H          3.170000   30.970000   21.660000  H         1 MOL        0.4250 ****
1694  H          5.750000   34.930000   21.490000  H         1 MOL        0.4250 ****
1695  H          4.790000    3.010000   19.950000  H         1 MOL        0.4250 ****
1696  H          2.250000   35.240000   20.210000  H         1 MOL        0.4250 ****
1697  O          4.860000   30.830000   24.070000  O         1 MOL       -1.0500 ****
1698  O          3.540000   33.020000   24.070000  O         1 MOL       -1.0500 ****
1699  O          6.180000   33.070000   24.070000  O         1 MOL       -1.0500 ****
1700 Oh          2.220000   30.800000   21.850000  O         1 MOL       -0.9500 ****
1701  O          4.860000   32.390000   21.850000  O         1 MOL       -1.0500 ****
1702  O          2.220000   33.660000   21.850000  O         1 MOL       -1.0500 ****
1703  O          2.220000   35.200000   24.070000  O         1 MOL       -1.0500 ****
1704  O          6.180000    0.840000   24.070000  O         1 MOL       -1.0500 ****
1705  O          3.540000    0.830000   24.070000  O         1 MOL       -1.0500 ****
1706 Oh          4.860000   35.210000   21.850000  O         1 MOL       -0.9500 ****
1707  O          2.220000    0.260000   21.850000  O         1 MOL       -1.0500 ****
1708  O          4.860000    1.500000   21.850000  O         1 MOL       -1.0500 ****
1709  O          3.100000    3.030000   17.510000  O         1 MOL       -1.0500 ****
1710  O          4.420000    0.780000   17.510000  O         1 MOL       -1.0500 ****
1711  O          1.780000    0.890000   17.510000  O         1 MOL       -1.0500 ****
1712Ohmg          5.740000    2.900000   19.730000  O         1 MOL       -1.0809 ****
1713  O          3.100000    1.420000   19.730000  O         1 MOL       -1.0500 ****
1714  O          5.740000    0.180000   19.730000  O         1 MOL       -1.0500 ****
1715  O          5.740000   35.190000   17.510000  O         1 MOL       -1.0500 ****
1716  O          1.780000   33.010000   17.510000  O         1 MOL       -1.0500 ****
1717  O          4.420000   33.040000   17.510000  O         1 MOL       -1.0500 ****
1718 Oh          3.100000   35.220000   19.730000  O         1 MOL       -0.9500 ****
1719  O          5.740000   33.800000   19.730000  O         1 MOL       -1.0500 ****
1720  O          3.100000   32.490000   19.730000  O         1 MOL       -1.0500 ****
1721 Al         11.900000   32.340000   20.790000 Al         1 MOL        1.5750 ****
1722 Al         11.900000   29.350000   20.790000 Al         1 MOL        1.5750 ****
1723 Al         14.540000    0.210000   20.790000 Al         1 MOL        1.5750 ****
1724 Al         14.540000   33.670000   20.790000 Al         1 MOL        1.5750 ****
1725 Si         10.140000   32.320000   23.520000 Si         1 MOL        2.1000 ****
1726 Si          7.500000   33.740000   23.520000 Si         1 MOL        2.1000 ****
1727 Si          7.500000    0.070000   23.520000 Si         1 MOL        2.1000 ****
1728 Si         10.140000    1.580000   23.520000 Si         1 MOL        2.1000 ****
1729 Si          8.380000    1.540000   18.060000 Si         1 MOL        2.1000 ****
1730 Si         11.020000    0.110000   18.060000 Si         1 MOL        2.1000 ****
1731 Si         11.020000   33.750000   18.060000 Si         1 MOL        2.1000 ****
1732 Si          8.380000   32.350000   18.060000 Si         1 MOL        2.1000 ****
1733  H          8.450000   30.970000   21.660000  H         1 MOL        0.4250 ****
1734  H         11.030000   34.930000   21.490000  H         1 MOL        0.4250 ****
1735  H         10.070000    3.010000   19.950000  H         1 MOL        0.4250 ****
1736  H          7.530000   35.240000   20.210000  H         1 MOL        0.4250 ****
1737  O         10.140000   30.830000   24.070000  O         1 MOL       -1.0500 ****
1738  O          8.820000   33.020000   24.070000  O         1 MOL       -1.0500 ****
1739  O         11.460000   33.070000   24.070000  O         1 MOL       -1.0500 ****
1740 Oh          7.500000   30.800000   21.850000  O         1 MOL       -0.9500 ****
1741Omg         10.140000   32.390000   21.850000  O         1 MOL       -1.1808 ****
1742Omg          7.500000   33.660000   21.850000  O         1 MOL       -1.1808 ****
1743  O          7.500000   35.200000   24.070000  O         1 MOL       -1.0500 ****
1744  O         11.460000    0.840000   24.070000  O         1 MOL       -1.0500 ****
1745  O          8.820000    0.830000   24.070000  O         1 MOL       -1.0500 ****
1746Ohmg         10.140000   35.210000   21.850000  O         1 MOL       -1.0809 ****
1747  O          7.500000    0.260000   21.850000  O         1 MOL       -1.0500 ****
1748  O         10.140000    1.500000   21.850000  O         1 MOL       -1.0500 ****
1749  O          8.380000    3.030000   17.510000  O         1 MOL       -1.0500 ****
1750  O          9.700000    0.780000   17.510000  O         1 MOL       -1.0500 ****
1751  O          7.060000    0.890000   17.510000  O         1 MOL       -1.0500 ****
1752 Oh         11.020000    2.900000   19.730000  O         1 MOL       -0.9500 ****
1753  O          8.380000    1.420000   19.730000  O         1 MOL       -1.0500 ****
1754  O         11.020000    0.180000   19.730000  O         1 MOL       -1.0500 ****
1755  O         11.020000   35.190000   17.510000  O         1 MOL       -1.0500 ****
1756  O          7.060000   33.010000   17.510000  O         1 MOL       -1.0500 ****
1757  O          9.700000   33.040000   17.510000  O         1 MOL       -1.0500 ****
1758Ohmg          8.380000   35.220000   19.730000  O         1 MOL       -1.0809 ****
1759Omg         11.020000   33.800000   19.730000  O         1 MOL       -1.1808 ****
1760Omg          8.380000   32.490000   19.730000  O         1 MOL       -1.1808 ****
1761 Al         17.180000   32.340000   20.790000 Al         1 MOL        1.5750 ****
1762Mgo         17.180000   29.350000   20.790000 Mg         1 MOL        1.3600 ****
1763 Al         19.820000    0.210000   20.790000 Al         1 MOL        1.5750 ****
1764 Al         19.820000   33.670000   20.790000 Al         1 MOL        1.5750 ****
1765 Si         15.420000   32.320000   23.520000 Si         1 MOL        2.1000 ****
1766 Si         12.780000   33.740000   23.520000 Si         1 MOL        2.1000 ****
1767 Si         12.780000    0.070000   23.520000 Si         1 MOL        2.1000 ****
1768 Si         15.420000    1.580000   23.520000 Si         1 MOL        2.1000 ****
1769 Si         13.660000    1.540000   18.060000 Si         1 MOL        2.1000 ****
1770 Si         16.300000    0.110000   18.060000 Si         1 MOL        2.1000 ****
1771 Si         16.300000   33.750000   18.060000 Si         1 MOL        2.1000 ****
1772 Si         13.660000   32.350000   18.060000 Si         1 MOL        2.1000 ****
1773  H         13.730000   30.970000   21.660000  H         1 MOL        0.4250 ****
1774  H         16.310000   34.930000   21.490000  H         1 MOL        0.4250 ****
1775  H         15.350000    3.010000   19.950000  H         1 MOL        0.4250 ****
1776  H         12.810000   35.240000   20.210000  H         1 MOL        0.4250 ****
1777  O         15.420000   30.830000   24.070000  O         1 MOL       -1.0500 ****
1778  O         14.100000   33.020000   24.070000  O         1 MOL       -1.0500 ****
1779  O         16.740000   33.070000   24.070000  O         1 MOL       -1.0500 ****
1780 Oh         12.780000   30.800000   21.850000  O         1 MOL       -0.9500 ****
1781  O         15.420000   32.390000   21.850000  O         1 MOL       -1.0500 ****
1782  O         12.780000   33.660000   21.850000  O         1 MOL       -1.0500 ****
1783  O         12.780000   35.200000   24.070000  O         1 MOL       -1.0500 ****
1784  O         16.740000    0.840000   24.070000  O         1 MOL       -1.0500 ****
1785  O         14.100000    0.830000   24.070000  O         1 MOL       -1.0500 ****
1786 Oh         15.420000   35.210000   21.850000  O         1 MOL       -0.9500 ****
1787  O         12.780000    0.260000   21.850000  O         1 MOL       -1.0500 ****
1788Omg         15.420000    1.500000   21.850000  O         1 MOL       -1.1808 ****
1789  O         13.660000    3.030000   17.510000  O         1 MOL       -1.0500 ****
1790  O         14.980000    0.780000   17.510000  O         1 MOL       -1.0500 ****
1791  O         12.340000    0.890000   17.510000  O         1 MOL       -1.0500 ****
1792Ohmg         16.300000    2.900000   19.730000  O         1 MOL       -1.0809 ****
1793  O         13.660000    1.420000   19.730000  O         1 MOL       -1.0500 ****
1794Omg         16.300000    0.180000   19.730000  O         1 MOL       -1.1808 ****
1795  O         16.300000   35.190000   17.510000  O         1 MOL       -1.0500 ****
1796  O         12.340000   33.010000   17.510000  O         1 MOL       -1.0500 ****
1797  O         14.980000   33.040000   17.510000  O         1 MOL       -1.0500 ****
1798 Oh         13.660000   35.220000   19.730000  O         1 MOL       -0.9500 ****
1799  O         16.300000   33.800000   19.730000  O         1 MOL       -1.0500 ****
1800  O         13.660000   32.490000   19.730000  O         1 MOL       -1.0500 ****
1801Mgo         22.460000   32.340000   20.790000 Mg         1 MOL        1.3600 ****
1802 Al         22.460000   29.350000   20.790000 Al         1 MOL        1.5750 ****
1803 Al         25.100000    0.210000   20.790000 Al         1 MOL        1.5750 ****
1804 Al         25.100000   33.670000   20.790000 Al         1 MOL        1.5750 ****
1805 Si         20.700000   32.320000   23.520000 Si         1 MOL        2.1000 ****
1806 Si         18.060000   33.740000   23.520000 Si         1 MOL        2.1000 ****
1807 Si         18.060000    0.070000   23.520000 Si         1 MOL        2.1000 ****
1808 Si         20.700000    1.580000   23.520000 Si         1 MOL        2.1000 ****
1809 Si         18.940000    1.540000   18.060000 Si         1 MOL        2.1000 ****
1810 Si         21.580000    0.110000   18.060000 Si         1 MOL        2.1000 ****
1811 Si         21.580000   33.750000   18.060000 Si         1 MOL        2.1000 ****
1812 Si         18.940000   32.350000   18.060000 Si         1 MOL        2.1000 ****
1813  H         19.010000   30.970000   21.660000  H         1 MOL        0.4250 ****
1814  H         21.590000   34.930000   21.490000  H         1 MOL        0.4250 ****
1815  H         20.630000    3.010000   19.950000  H         1 MOL        0.4250 ****
1816  H         18.090000   35.240000   20.210000  H         1 MOL        0.4250 ****
1817  O         20.700000   30.830000   24.070000  O         1 MOL       -1.0500 ****
1818  O         19.380000   33.020000   24.070000  O         1 MOL       -1.0500 ****
1819  O         22.020000   33.070000   24.070000  O         1 MOL       -1.0500 ****
1820Ohmg         18.060000   30.800000   21.850000  O         1 MOL       -1.0809 ****
1821Omg         20.700000   32.390000   21.850000  O         1 MOL       -1.1808 ****
1822  O         18.060000   33.660000   21.850000  O         1 MOL       -1.0500 ****
1823  O         18.060000   35.200000   24.070000  O         1 MOL       -1.0500 ****
1824  O         22.020000    0.840000   24.070000  O         1 MOL       -1.0500 ****
1825  O         19.380000    0.830000   24.070000  O         1 MOL       -1.0500 ****
1826 Oh         20.700000   35.210000   21.850000  O         1 MOL       -0.9500 ****
1827Omg         18.060000    0.260000   21.850000  O         1 MOL       -1.1808 ****
1828  O         20.700000    1.500000   21.850000  O         1 MOL       -1.0500 ****
1829  O         18.940000    3.030000   17.510000  O         1 MOL       -1.0500 ****
1830  O         20.260000    0.780000   17.510000  O         1 MOL       -1.0500 ****
1831  O         17.620000    0.890000   17.510000  O         1 MOL       -1.0500 ****
1832 Oh         21.580000    2.900000   19.730000  O         1 MOL       -0.9500 ****
1833Omg         18.940000    1.420000   19.730000  O         1 MOL       -1.1808 ****
1834  O         21.580000    0.180000   19.730000  O         1 MOL       -1.0500 ****
1835  O         21.580000   35.190000   17.510000  O         1 MOL       -1.0500 ****
1836  O         17.620000   33.010000   17.510000  O         1 MOL       -1.0500 ****
1837  O         20.260000   33.040000   17.510000  O         1 MOL       -1.0500 ****
1838 Oh         18.940000   35.220000   19.730000  O         1 MOL       -0.9500 ****
1839Omg         21.580000   33.800000   19.730000  O         1 MOL       -1.1808 ****
1840  O         18.940000   32.490000   19.730000  O         1 MOL       -1.0500 ****
1841 Al         27.740000   32.340000   20.790000 Al         1 MOL        1.5750 ****
1842 Al         27.740000   29.350000   20.790000 Al         1 MOL        1.5750 ****
1843 Al         30.380000    0.210000   20.790000 Al         1 MOL        1.5750 ****
1844Mgo         30.380000   33.670000   20.790000 Mg         1 MOL        1.3600 ****
1845 Si         25.980000   32.320000   23.520000 Si         1 MOL        2.1000 ****
1846 Si         23.340000   33.740000   23.520000 Si         1 MOL        2.1000 ****
1847 Si         23.340000    0.070000   23.520000 Si         1 MOL        2.1000 ****
1848 Si         25.980000    1.580000   23.520000 Si         1 MOL        2.1000 ****
1849 Si         24.220000    1.540000   18.060000 Si         1 MOL        2.1000 ****
1850 Si         26.860000    0.110000   18.060000 Si         1 MOL        2.1000 ****
1851 Si         26.860000   33.750000   18.060000 Si         1 MOL        2.1000 ****
1852 Si         24.220000   32.350000   18.060000 Si         1 MOL        2.1000 ****
1853  H         24.290000   30.970000   21.660000  H         1 MOL        0.4250 ****
1854  H         26.870000   34.930000   21.490000  H         1 MOL        0.4250 ****
1855  H         25.910000    3.010000   19.950000  H         1 MOL        0.4250 ****
1856  H         23.370000   35.240000   20.210000  H         1 MOL        0.4250 ****
1857  O         25.980000   30.830000   24.070000  O         1 MOL       -1.0500 ****
1858  O         24.660000   33.020000   24.070000  O         1 MOL       -1.0500 ****
1859  O         27.300000   33.070000   24.070000  O         1 MOL       -1.0500 ****
1860Ohmg         23.340000   30.800000   21.850000  O         1 MOL       -1.0809 ****
1861  O         25.980000   32.390000   21.850000  O         1 MOL       -1.0500 ****
1862Omg         23.340000   33.660000   21.850000  O         1 MOL       -1.1808 ****
1863  O         23.340000   35.200000   24.070000  O         1 MOL       -1.0500 ****
1864  O         27.300000    0.840000   24.070000  O         1 MOL       -1.0500 ****
1865  O         24.660000    0.830000   24.070000  O         1 MOL       -1.0500 ****
1866 Oh         25.980000   35.210000   21.850000  O         1 MOL       -0.9500 ****
1867  O         23.340000    0.260000   21.850000  O         1 MOL       -1.0500 ****
1868  O         25.980000    1.500000   21.850000  O         1 MOL       -1.0500 ****
1869  O         24.220000    3.030000   17.510000  O         1 MOL       -1.0500 ****
1870  O         25.540000    0.780000   17.510000  O         1 MOL       -1.0500 ****
1871  O         22.900000    0.890000   17.510000  O         1 MOL       -1.0500 ****
1872 Oh         26.860000    2.900000   19.730000  O         1 MOL       -0.9500 ****
1873  O         24.220000    1.420000   19.730000  O         1 MOL       -1.0500 ****
1874  O         26.860000    0.180000   19.730000  O         1 MOL       -1.0500 ****
1875  O         26.860000   35.190000   17.510000  O         1 MOL       -1.0500 ****
1876  O         22.900000   33.010000   17.510000  O         1 MOL       -1.0500 ****
1877  O         25.540000   33.040000   17.510000  O         1 MOL       -1.0500 ****
1878 Oh         24.220000   35.220000   19.730000  O         1 MOL       -0.9500 ****
1879  O         26.860000   33.800000   19.730000  O         1 MOL       -1.0500 ****
1880Omg         24.220000   32.490000   19.730000  O         1 MOL       -1.1808 ****
1881 Al          1.340000   32.340000   20.790000 Al         1 MOL        1.5750 ****
1882 Al          1.340000   29.350000   20.790000 Al         1 MOL        1.5750 ****
1883 Al          3.980000    0.210000   20.790000 Al         1 MOL        1.5750 ****
1884 Al          3.980000   33.670000   20.790000 Al         1 MOL        1.5750 ****
1885 Si         31.260000   32.320000   23.520000 Si         1 MOL        2.1000 ****
1886 Si         28.620000   33.740000   23.520000 Si         1 MOL        2.1000 ****
1887 Si         28.620000    0.070000   23.520000 Si         1 MOL        2.1000 ****
1888 Si         31.260000    1.580000   23.520000 Si         1 MOL        2.1000 ****
1889 Si         29.500000    1.540000   18.060000 Si         1 MOL        2.1000 ****
1890 Si          0.460000    0.110000   18.060000 Si         1 MOL        2.1000 ****
1891 Si          0.460000   33.750000   18.060000 Si         1 MOL        2.1000 ****
1892 Si         29.500000   32.350000   18.060000 Si         1 MOL        2.1000 ****
1893  H         29.570000   30.970000   21.660000  H         1 MOL        0.4250 ****
1894  H          0.470000   34.930000   21.490000  H         1 MOL        0.4250 ****
1895  H         31.190000    3.010000   19.950000  H         1 MOL        0.4250 ****
1896  H         28.650000   35.240000   20.210000  H         1 MOL        0.4250 ****
1897  O         31.260000   30.830000   24.070000  O         1 MOL       -1.0500 ****
1898  O         29.940000   33.020000   24.070000  O         1 MOL       -1.0500 ****
1899  O          0.900000   33.070000   24.070000  O         1 MOL       -1.0500 ****
1900 Oh         28.620000   30.800000   21.850000  O         1 MOL       -0.9500 ****
1901Omg         31.260000   32.390000   21.850000  O         1 MOL       -1.1808 ****
1902Omg         28.620000   33.660000   21.850000  O         1 MOL       -1.1808 ****
1903  O         28.620000   35.200000   24.070000  O         1 MOL       -1.0500 ****
1904  O          0.900000    0.840000   24.070000  O         1 MOL       -1.0500 ****
1905  O         29.940000    0.830000   24.070000  O         1 MOL       -1.0500 ****
1906Ohmg         31.260000   35.210000   21.850000  O         1 MOL       -1.0809 ****
1907  O         28.620000    0.260000   21.850000  O         1 MOL       -1.0500 ****
1908  O         31.260000    1.500000   21.850000  O         1 MOL       -1.0500 ****
1909  O         29.500000    3.030000   17.510000  O         1 MOL       -1.0500 ****
1910  O         30.820000    0.780000   17.510000  O         1 MOL       -1.0500 ****
1911  O         28.180000    0.890000   17.510000  O         1 MOL       -1.0500 ****
1912 Oh          0.460000    2.900000   19.730000  O         1 MOL       -0.9500 ****
1913  O         29.500000    1.420000   19.730000  O         1 MOL       -1.0500 ****
1914  O          0.460000    0.180000   19.730000  O         1 MOL       -1.0500 ****
1915  O          0.460000   35.190000   17.510000  O         1 MOL       -1.0500 ****
1916  O         28.180000   33.010000   17.510000  O         1 MOL       -1.0500 ****
1917  O         30.820000   33.040000   17.510000  O         1 MOL       -1.0500 ****
1918Ohmg         29.500000   35.220000   19.730000  O         1 MOL       -1.0809 ****
1919Omg          0.460000   33.800000   19.730000  O         1 MOL       -1.1808 ****
1920Omg         29.500000   32.490000   19.730000  O         1 MOL       -1.1808 ****
1921 Na          2.240000   30.670000   10.390000 Na         1 MOL        1.0000 ****
1922 Na         10.160000    1.920000   10.390000 Na         1 MOL        1.0000 ****
1923 Na         28.640000   21.530000   10.390000 Na         1 MOL        1.0000 ****
1924 Na         10.160000   29.340000   10.390000 Na         1 MOL        1.0000 ****
1925 Na          2.240000   24.630000   10.390000 Na         1 MOL        1.0000 ****
1926 Na          2.240000    3.250000   10.390000 Na         1 MOL        1.0000 ****
1927 Na         26.000000   35.490000   10.390000 Na         1 MOL        1.0000 ****
1928 Na         28.640000    6.350000   10.390000 Na         1 MOL        1.0000 ****
1929 Na         26.000000   29.340000   10.390000 Na         1 MOL        1.0000 ****
1930 Na          7.520000   15.490000   10.390000 Na         1 MOL        1.0000 ****
1931 Na          7.520000   21.530000   10.390000 Na         1 MOL        1.0000 ****
1932 Na         18.080000   33.770000   10.390000 Na         1 MOL        1.0000 ****
1933 Na         15.440000    8.070000   10.390000 Na         1 MOL        1.0000 ****
1934 Na          2.240000   12.390000   10.390000 Na         1 MOL        1.0000 ****
1935 Na         18.080000   21.530000   10.390000 Na         1 MOL        1.0000 ****
1936 Na         23.360000   15.490000   10.390000 Na         1 MOL        1.0000 ****
1937 Na          9.260000   33.670000   31.190000 Na         1 MOL        1.0000 ****
1938 Na         30.380000   33.670000   31.190000 Na         1 MOL        1.0000 ****
1939 Na         22.460000   32.340000   31.190000 Na         1 MOL        1.0000 ****
1940 Na         22.460000   20.210000   31.190000 Na         1 MOL        1.0000 ****
1941 Na         11.900000   14.060000   31.190000 Na         1 MOL        1.0000 ****
1942 Na         17.180000    1.930000   31.190000 Na         1 MOL        1.0000 ****
1943 Na         17.180000   29.350000   31.190000 Na         1 MOL        1.0000 ****
1944 Na          1.340000   11.070000   31.190000 Na         1 MOL        1.0000 ****
1945 Na          3.980000   24.530000   31.190000 Na         1 MOL        1.0000 ****
1946 Na         11.900000   20.210000   31.190000 Na         1 MOL        1.0000 ****
1947 Na          9.260000   27.630000   31.190000 Na         1 MOL        1.0000 ****
1948 Na         17.180000   11.070000   31.190000 Na         1 MOL        1.0000 ****
1949 Na         25.100000    6.250000   31.190000 Na         1 MOL        1.0000 ****
1950 Na         30.380000   27.630000   31.190000 Na         1 MOL        1.0000 ****
1951 Na         30.380000   18.490000   31.190000 Na         1 MOL        1.0000 ****
1952 Na          6.620000    4.920000   31.190000 Na         1 MOL        1.0000 ****
1953 Ow          4.710000   28.310000    7.240000  O         1 MOL       -0.8476 ****
1954 Hw          4.000000   28.040000    7.890000  H         1 MOL        0.4238 ****
1955 Hw          4.450000   28.030000    6.310000  H         1 MOL        0.4238 ****
1956 Ow         27.440000   10.840000    6.790000  O         1 MOL       -0.8476 ****
1957 Hw         26.740000   10.370000    7.330000  H         1 MOL        0.4238 ****
1958 Hw         28.030000   10.160000    6.360000  H         1 MOL        0.4238 ****
1959 Ow         17.550000    6.040000    8.390000  O         1 MOL       -0.8476 ****
1960 Hw         17.880000    6.980000    8.390000  H         1 MOL        0.4238 ****
1961 Hw         18.060000    5.500000    9.050000  H         1 MOL        0.4238 ****
1962 Ow          9.270000   17.680000   13.850000  O         1 MOL       -0.8476 ****
1963 Hw          9.520000   17.480000   12.900000  H         1 MOL        0.4238 ****
1964 Hw          9.990000   18.240000   14.270000  H         1 MOL        0.4238 ****
1965 Ow         20.220000    5.330000   12.630000  O         1 MOL       -0.8476 ****
1966 Hw         20.600000    4.740000   13.350000  H         1 MOL        0.4238 ****
1967 Hw         20.620000    5.070000   11.750000  H         1 MOL        0.4238 ****
1968 Ow          6.320000   17.720000   14.220000  O         1 MOL       -0.8476 ****
1969 Hw          5.400000   17.550000   14.570000  H         1 MOL        0.4238 ****
1970 Hw          6.600000   18.640000   14.480000  H         1 MOL        0.4238 ****
1971 Ow          0.910000   12.260000    6.360000  O         1 MOL       -0.8476 ****
1972 Hw          0.900000   11.790000    7.240000  H         1 MOL        0.4238 ****
1973 Hw          1.730000   11.980000    5.850000  H         1 MOL        0.4238 ****
1974 Ow         17.660000   12.090000   15.710000  O         1 MOL       -0.8476 ****
1975 Hw         18.570000   11.700000   15.580000  H         1 MOL        0.4238 ****
1976 Hw         17.740000   13.050000   15.950000  H         1 MOL        0.4238 ****
1977 Ow         29.320000   15.360000   14.890000  O         1 MOL       -0.8476 ****
1978 Hw         29.380000   14.590000   15.530000  H         1 MOL        0.4238 ****
1979 Hw         28.800000   15.100000   14.090000  H         1 MOL        0.4238 ****
1980 Ow         26.200000   34.600000   13.850000  O         1 MOL       -0.8476 ****
1981 Hw         26.450000   34.400000   12.900000  H         1 MOL        0.4238 ****
1982 Hw         26.920000   35.160000   14.270000  H         1 MOL        0.4238 ****
1983 Ow          9.340000   21.820000    8.820000  O         1 MOL       -0.8476 ****
1984 Hw          9.090000   21.730000    7.860000  H         1 MOL        0.4238 ****
1985 Hw          9.820000   21.000000    9.130000  H         1 MOL        0.4238 ****
1986 Ow         23.180000   30.440000    7.090000  O         1 MOL       -0.8476 ****
1987 Hw         22.690000   29.570000    7.180000  H         1 MOL        0.4238 ****
1988 Hw         22.950000   30.870000    6.220000  H         1 MOL        0.4238 ****
1989 Ow          8.710000    9.420000    8.440000  O         1 MOL       -0.8476 ****
1990 Hw          9.250000    8.730000    8.920000  H         1 MOL        0.4238 ****
1991 Hw          8.390000   10.110000    9.100000  H         1 MOL        0.4238 ****
1992 Ow         17.210000    3.710000   13.640000  O         1 MOL       -0.8476 ****
1993 Hw         17.940000    4.400000   13.680000  H         1 MOL        0.4238 ****
1994 Hw         17.490000    2.960000   13.050000  H         1 MOL        0.4238 ****
1995 Ow         26.960000    3.960000   12.250000  O         1 MOL       -0.8476 ****
1996 Hw         26.190000    4.300000   12.790000  H         1 MOL        0.4238 ****
1997 Hw         26.620000    3.450000   11.460000  H         1 MOL        0.4238 ****
1998 Ow         16.860000    8.690000   12.370000  O         1 MOL       -0.8476 ****
1999 Hw         16.590000    7.800000   12.000000  H         1 MOL        0.4238 ****
2000 Hw         16.870000    9.370000   11.640000  H         1 MOL        0.4238 ****
2001 Ow         25.120000   22.840000   14.480000  O         1 MOL       -0.8476 ****
2002 Hw         24.650000   22.810000   15.370000  H         1 MOL        0.4238 ****
2003 Hw         24.610000   22.290000   13.820000  H         1 MOL        0.4238 ****
2004 Ow          3.510000   21.880000    9.890000  O         1 MOL       -0.8476 ****
2005 Hw          2.990000   21.050000    9.720000  H         1 MOL        0.4238 ****
2006 Hw          4.280000   21.930000    9.250000  H         1 MOL        0.4238 ****
2007 Ow         16.260000   12.780000   12.720000  O         1 MOL       -0.8476 ****
2008 Hw         16.860000   12.810000   13.520000  H         1 MOL        0.4238 ****
2009 Hw         15.510000   13.420000   12.850000  H         1 MOL        0.4238 ****
2010 Ow         14.780000   14.030000    9.360000  O         1 MOL       -0.8476 ****
2011 Hw         14.190000   14.090000   10.160000  H         1 MOL        0.4238 ****
2012 Hw         14.630000   13.150000    8.900000  H         1 MOL        0.4238 ****
2013 Ow         13.050000   12.140000   14.060000  O         1 MOL       -0.8476 ****
2014 Hw         13.420000   11.410000   13.480000  H         1 MOL        0.4238 ****
2015 Hw         13.570000   12.190000   14.910000  H         1 MOL        0.4238 ****
2016 Ow         19.020000   26.550000   12.470000  O         1 MOL       -0.8476 ****
2017 Hw         19.910000   26.100000   12.330000  H         1 MOL        0.4238 ****
2018 Hw         18.290000   25.900000   12.280000  H         1 MOL        0.4238 ****
2019 Ow         26.350000   33.570000   14.480000  O         1 MOL       -0.8476 ****
2020 Hw         26.110000   33.390000   13.530000  H         1 MOL        0.4238 ****
2021 Hw         26.650000   34.510000   14.580000  H         1 MOL        0.4238 ****
2022 Ow         17.420000   12.960000   12.650000  O         1 MOL       -0.8476 ****
2023 Hw         17.950000   12.470000   13.330000  H         1 MOL        0.4238 ****
2024 Hw         17.640000   13.940000   12.700000  H         1 MOL        0.4238 ****
2025 Ow          1.000000   34.800000    9.100000  O         1 MOL       -0.8476 ****
2026 Hw          0.580000   33.940000    8.830000  H         1 MOL        0.4238 ****
2027 Hw          1.940000   34.830000    8.760000  H         1 MOL        0.4238 ****
2028 Ow         29.320000   32.290000   14.890000  O         1 MOL       -0.8476 ****
2029 Hw         29.380000   31.520000   15.530000  H         1 MOL        0.4238 ****
2030 Hw         28.800000   32.030000   14.090000  H         1 MOL        0.4238 ****
2031 Ow         12.830000   17.830000    5.740000  O         1 MOL       -0.8476 ****
2032 Hw         13.270000   18.470000    5.100000  H         1 MOL        0.4238 ****
2033 Hw         12.330000   18.350000    6.440000  H         1 MOL        0.4238 ****
2034 Ow         25.270000   26.810000   13.550000  O         1 MOL       -0.8476 ****
2035 Hw         25.670000   26.800000   12.630000  H         1 MOL        0.4238 ****
2036 Hw         25.370000   27.730000   13.950000  H         1 MOL        0.4238 ****
2037 Ow         29.770000   31.240000   11.250000  O         1 MOL       -0.8476 ****
2038 Hw         30.240000   31.370000   12.120000  H         1 MOL        0.4238 ****
2039 Hw         29.110000   30.500000   11.340000  H         1 MOL        0.4238 ****
2040 Ow         27.280000    7.520000    9.490000  O         1 MOL       -0.8476 ****
2041 Hw         27.430000    7.730000   10.450000  H         1 MOL        0.4238 ****
2042 Hw         26.980000    6.570000    9.400000  H         1 MOL        0.4238 ****
2043 Ow          3.660000   14.960000   13.120000  O         1 MOL       -0.8476 ****
2044 Hw          3.450000   14.520000   12.250000  H         1 MOL        0.4238 ****
2045 Hw          4.630000   15.220000   13.150000  H         1 MOL        0.4238 ****
2046 Ow         17.040000   15.550000    8.340000  O         1 MOL       -0.8476 ****
2047 Hw         16.330000   15.430000    7.640000  H         1 MOL        0.4238 ****
2048 Hw         17.050000   14.760000    8.940000  H         1 MOL        0.4238 ****
2049 Ow         20.440000   21.880000    9.890000  O         1 MOL       -0.8476 ****
2050 Hw         19.920000   21.050000    9.720000  H         1 MOL        0.4238 ****
2051 Hw         21.210000   21.930000    9.250000  H         1 MOL        0.4238 ****
2052 Ow          6.730000   34.690000    9.360000  O         1 MOL       -0.8476 ****
2053 Hw          6.270000   35.570000    9.230000  H         1 MOL        0.4238 ****
2054 Hw          7.720000   34.810000    9.290000  H         1 MOL        0.4238 ****
2055 Ow          6.250000   13.510000    7.090000  O         1 MOL       -0.8476 ****
2056 Hw          5.760000   12.640000    7.180000  H         1 MOL        0.4238 ****
2057 Hw          6.020000   13.940000    6.220000  H         1 MOL        0.4238 ****
2058 Ow         16.150000   21.260000    7.200000  O         1 MOL       -0.8476 ****
2059 Hw         15.410000   21.720000    6.700000  H         1 MOL        0.4238 ****
2060 Hw         16.660000   21.940000    7.730000  H         1 MOL        0.4238 ****
2061 Ow          6.300000   15.530000   12.670000  O         1 MOL       -0.8476 ****
2062 Hw          6.250000   16.350000   13.240000  H         1 MOL        0.4238 ****
2063 Hw          7.190000   15.500000   12.220000  H         1 MOL        0.4238 ****
2064 Ow         30.050000   21.320000    6.740000  O         1 MOL       -0.8476 ****
2065 Hw         29.460000   22.120000    6.780000  H         1 MOL        0.4238 ****
2066 Hw         30.200000   20.970000    7.670000  H         1 MOL        0.4238 ****
2067 Ow          3.630000   34.800000    8.360000  O         1 MOL       -0.8476 ****
2068 Hw          4.130000   33.940000    8.420000  H         1 MOL        0.4238 ****
2069 Hw          4.280000   35.570000    8.330000  H         1 MOL        0.4238 ****
2070 Ow         22.740000   29.540000   11.480000  O         1 MOL       -0.8476 ****
2071 Hw         21.810000   29.470000   11.110000  H         1 MOL        0.4238 ****
2072 Hw         22.850000   30.430000   11.920000  H         1 MOL        0.4238 ****
2073 Ow         15.050000   34.460000    9.420000  O         1 MOL       -0.8476 ****
2074 Hw         15.380000   35.100000    8.730000  H         1 MOL        0.4238 ****
2075 Hw         15.710000   34.400000   10.170000  H         1 MOL        0.4238 ****
2076 Ow         22.990000   24.240000    6.350000  O         1 MOL       -0.8476 ****
2077 Hw         23.490000   25.090000    6.160000  H         1 MOL        0.4238 ****
2078 Hw         22.110000   24.260000    5.870000  H         1 MOL        0.4238 ****
2079 Ow         18.360000   18.710000   12.100000  O         1 MOL       -0.8476 ****
2080 Hw         18.320000   17.810000   12.540000  H         1 MOL        0.4238 ****
2081 Hw         18.390000   18.600000   11.110000  H         1 MOL        0.4238 ****
2082 Ow          6.250000   30.440000    7.090000  O         1 MOL       -0.8476 ****
2083 Hw          5.760000   29.570000    7.180000  H         1 MOL        0.4238 ****
2084 Hw          6.020000   30.870000    6.220000  H         1 MOL        0.4238 ****
2085 Ow         17.690000   15.500000   13.140000  O         1 MOL       -0.8476 ****
2086 Hw         17.230000   16.320000   12.800000  H         1 MOL        0.4238 ****
2087 Hw         18.670000   15.690000   13.230000  H         1 MOL        0.4238 ****
2088 Ow         12.640000   34.100000   11.110000  O         1 MOL       -0.8476 ****
2089 Hw         13.480000   34.150000   10.570000  H         1 MOL        0.4238 ****
2090 Hw         12.410000   33.140000   11.290000  H         1 MOL        0.4238 ****
2091 Ow          5.780000   22.160000    8.480000  O         1 MOL       -0.8476 ****
2092 Hw          5.900000   22.820000    7.740000  H         1 MOL        0.4238 ****
2093 Hw          6.240000   22.500000    9.310000  H         1 MOL        0.4238 ****
2094 Ow          5.810000   12.610000   11.480000  O         1 MOL       -0.8476 ****
2095 Hw          4.880000   12.540000   11.110000  H         1 MOL        0.4238 ****
2096 Hw          5.920000   13.500000   11.920000  H         1 MOL        0.4238 ****
2097 Ow         22.550000    1.820000    8.680000  O         1 MOL       -0.8476 ****
2098 Hw         22.500000    1.770000    9.680000  H         1 MOL        0.4238 ****
2099 Hw         22.570000    2.780000    8.390000  H         1 MOL        0.4238 ****
2100 Ow          4.020000   17.270000   15.430000  O         1 MOL       -0.8476 ****
2101 Hw          3.110000   17.680000   15.410000  H         1 MOL        0.4238 ****
2102 Hw          3.950000   16.330000   15.750000  H         1 MOL        0.4238 ****
2103 Ow         12.390000   32.290000   14.890000  O         1 MOL       -0.8476 ****
2104 Hw         12.450000   31.520000   15.530000  H         1 MOL        0.4238 ****
2105 Hw         11.870000   32.030000   14.090000  H         1 MOL        0.4238 ****
2106 Ow         20.120000   18.920000   12.140000  O         1 MOL       -0.8476 ****
2107 Hw         19.890000   19.290000   13.040000  H         1 MOL        0.4238 ****
2108 Hw         19.820000   17.970000   12.080000  H         1 MOL        0.4238 ****
2109 Ow          0.520000   22.230000   10.970000  O         1 MOL       -0.8476 ****
2110 Hw          1.370000   21.900000   10.560000  H         1 MOL        0.4238 ****
2111 Hw          0.650000   22.380000   11.950000  H         1 MOL        0.4238 ****
2112 Ow         18.640000   28.160000   14.490000  O         1 MOL       -0.8476 ****
2113 Hw         18.860000   27.550000   15.250000  H         1 MOL        0.4238 ****
2114 Hw         18.740000   27.670000   13.630000  H         1 MOL        0.4238 ****
2115 Ow         16.760000   29.590000    6.400000  O         1 MOL       -0.8476 ****
2116 Hw         17.750000   29.670000    6.540000  H         1 MOL        0.4238 ****
2117 Hw         16.310000   30.430000    6.710000  H         1 MOL        0.4238 ****
2118 Ow         25.350000   29.520000   14.050000  O         1 MOL       -0.8476 ****
2119 Hw         25.300000   29.850000   15.000000  H         1 MOL        0.4238 ****
2120 Hw         24.490000   29.710000   13.590000  H         1 MOL        0.4238 ****
2121 Ow         29.770000   14.310000   11.250000  O         1 MOL       -0.8476 ****
2122 Hw         30.240000   14.440000   12.120000  H         1 MOL        0.4238 ****
2123 Hw         29.110000   13.570000   11.340000  H         1 MOL        0.4238 ****
2124 Ow         27.730000   13.190000    8.320000  O         1 MOL       -0.8476 ****
2125 Hw         27.800000   12.350000    7.770000  H         1 MOL        0.4238 ****
2126 Hw         28.350000   13.880000    7.960000  H         1 MOL        0.4238 ****
2127 Ow         19.540000   34.640000   12.240000  O         1 MOL       -0.8476 ****
2128 Hw         20.110000   33.990000   12.740000  H         1 MOL        0.4238 ****
2129 Hw         19.380000   34.310000   11.310000  H         1 MOL        0.4238 ****
2130 Ow          8.190000   22.840000   14.480000  O         1 MOL       -0.8476 ****
2131 Hw          7.720000   22.810000   15.370000  H         1 MOL        0.4238 ****
2132 Hw          7.680000   22.290000   13.820000  H         1 MOL        0.4238 ****
2133 Ow         17.830000    5.420000   13.690000  O         1 MOL       -0.8476 ****
2134 Hw         18.750000    5.410000   13.280000  H         1 MOL        0.4238 ****
2135 Hw         17.770000    6.160000   14.360000  H         1 MOL        0.4238 ****
2136 Ow         12.920000   26.060000    6.550000  O         1 MOL       -0.8476 ****
2137 Hw         13.520000   25.250000    6.570000  H         1 MOL        0.4238 ****
2138 Hw         13.320000   26.750000    5.950000  H         1 MOL        0.4238 ****
2139 Ow         22.710000   22.160000    8.480000  O         1 MOL       -0.8476 ****
2140 Hw         22.830000   22.820000    7.740000  H         1 MOL        0.4238 ****
2141 Hw         23.170000   22.500000    9.310000  H         1 MOL        0.4238 ****
2142 Ow         20.950000   17.270000   15.430000  O         1 MOL       -0.8476 ****
2143 Hw         20.040000   17.680000   15.410000  H         1 MOL        0.4238 ****
2144 Hw         20.880000   16.330000   15.750000  H         1 MOL        0.4238 ****
2145 Ow         23.180000   13.510000    7.090000  O         1 MOL       -0.8476 ****
2146 Hw         22.690000   12.640000    7.180000  H         1 MOL        0.4238 ****
2147 Hw         22.950000   13.940000    6.220000  H         1 MOL        0.4238 ****
2148 Ow         14.360000   18.930000   10.950000  O         1 MOL       -0.8476 ****
2149 Hw         14.880000   18.280000   11.500000  H         1 MOL        0.4238 ****
2150 Hw         13.870000   19.560000   11.560000  H         1 MOL        0.4238 ****
2151 Ow          4.500000   20.710000   14.820000  O         1 MOL       -0.8476 ****
2152 Hw          5.320000   20.150000   14.910000  H         1 MOL        0.4238 ****
2153 Hw          3.690000   20.130000   14.860000  H         1 MOL        0.4238 ****
2154 Ow         25.080000   13.880000    9.070000  O         1 MOL       -0.8476 ****
2155 Hw         25.980000   14.020000    8.650000  H         1 MOL        0.4238 ****
2156 Hw         24.370000   13.900000    8.360000  H         1 MOL        0.4238 ****
2157 Ow          0.760000   32.430000   13.140000  O         1 MOL       -0.8476 ****
2158 Hw          0.300000   33.250000   12.800000  H         1 MOL        0.4238 ****
2159 Hw          1.740000   32.620000   13.230000  H         1 MOL        0.4238 ****
2160 Ow          6.060000    7.310000    6.350000  O         1 MOL       -0.8476 ****
2161 Hw          6.560000    8.160000    6.160000  H         1 MOL        0.4238 ****
2162 Hw          5.180000    7.330000    5.870000  H         1 MOL        0.4238 ****
2163 Ow         28.400000    6.890000    7.000000  O         1 MOL       -0.8476 ****
2164 Hw         28.970000    7.670000    6.750000  H         1 MOL        0.4238 ****
2165 Hw         27.800000    7.150000    7.760000  H         1 MOL        0.4238 ****
2166 Ow         26.450000   16.840000    8.870000  O         1 MOL       -0.8476 ****
2167 Hw         27.250000   16.270000    9.080000  H         1 MOL        0.4238 ****
2168 Hw         25.960000   16.440000    8.100000  H         1 MOL        0.4238 ****
2169 Ow          8.420000   12.590000   14.050000  O         1 MOL       -0.8476 ****
2170 Hw          8.370000   12.920000   15.000000  H         1 MOL        0.4238 ****
2171 Hw          7.560000   12.780000   13.590000  H         1 MOL        0.4238 ****
2172 Ow         22.710000    5.230000    8.480000  O         1 MOL       -0.8476 ****
2173 Hw         22.830000    5.890000    7.740000  H         1 MOL        0.4238 ****
2174 Hw         23.170000    5.570000    9.310000  H         1 MOL        0.4238 ****
2175 Ow         29.980000   29.070000   14.060000  O         1 MOL       -0.8476 ****
2176 Hw         30.350000   28.340000   13.480000  H         1 MOL        0.4238 ****
2177 Hw         30.500000   29.120000   14.910000  H         1 MOL        0.4238 ****
2178 Ow         15.670000   14.970000    6.860000  O         1 MOL       -0.8476 ****
2179 Hw         15.100000   14.810000    7.670000  H         1 MOL        0.4238 ****
2180 Hw         15.080000   15.070000    6.060000  H         1 MOL        0.4238 ****
2181 Ow          9.420000   16.640000   14.480000  O         1 MOL       -0.8476 ****
2182 Hw          9.180000   16.460000   13.530000  H         1 MOL        0.4238 ****
2183 Hw          9.720000   17.580000   14.580000  H         1 MOL        0.4238 ****
2184 Ow          2.140000   19.640000   14.810000  O         1 MOL       -0.8476 ****
2185 Hw          1.340000   20.240000   14.680000  H         1 MOL        0.4238 ****
2186 Hw          2.040000   19.150000   15.670000  H         1 MOL        0.4238 ****
2187 Ow         16.790000   17.000000    5.550000  O         1 MOL       -0.8476 ****
2188 Hw         16.380000   16.770000    4.670000  H         1 MOL        0.4238 ****
2189 Hw         16.610000   16.260000    6.200000  H         1 MOL        0.4238 ****
2190 Ow         12.390000   32.490000    7.760000  O         1 MOL       -0.8476 ****
2191 Hw         12.600000   33.230000    7.110000  H         1 MOL        0.4238 ****
2192 Hw         13.070000   32.490000    8.490000  H         1 MOL        0.4238 ****
2193 Ow         14.700000   24.140000    7.110000  O         1 MOL       -0.8476 ****
2194 Hw         14.650000   23.490000    7.860000  H         1 MOL        0.4238 ****
2195 Hw         15.500000   24.730000    7.240000  H         1 MOL        0.4238 ****
2196 Ow          2.610000   17.710000   12.240000  O         1 MOL       -0.8476 ****
2197 Hw          3.180000   17.060000   12.740000  H         1 MOL        0.4238 ****
2198 Hw          2.450000   17.380000   11.310000  H         1 MOL        0.4238 ****
2199 Ow          3.290000   22.260000   12.630000  O         1 MOL       -0.8476 ****
2200 Hw          3.670000   21.670000   13.350000  H         1 MOL        0.4238 ****
2201 Hw          3.690000   22.000000   11.750000  H         1 MOL        0.4238 ****
2202 Ow         20.120000   17.420000    6.010000  O         1 MOL       -0.8476 ****
2203 Hw         20.010000   18.360000    6.340000  H         1 MOL        0.4238 ****
2204 Hw         20.070000   16.790000    6.780000  H         1 MOL        0.4238 ****
2205 Ow         25.350000   12.590000   14.050000  O         1 MOL       -0.8476 ****
2206 Hw         25.300000   12.920000   15.000000  H         1 MOL        0.4238 ****
2207 Hw         24.490000   12.780000   13.590000  H         1 MOL        0.4238 ****
2208 Ow          3.190000   18.920000   12.140000  O         1 MOL       -0.8476 ****
2209 Hw          2.960000   19.290000   13.040000  H         1 MOL        0.4238 ****
2210 Hw          2.890000   17.970000   12.080000  H         1 MOL        0.4238 ****
2211 Ow         19.680000    3.120000    7.030000  O         1 MOL       -0.8476 ****
2212 Hw         18.890000    3.630000    6.690000  H         1 MOL        0.4238 ****
2213 Hw         19.590000    2.970000    8.010000  H         1 MOL        0.4238 ****
2214 Ow         15.670000   31.900000    6.860000  O         1 MOL       -0.8476 ****
2215 Hw         15.100000   31.740000    7.670000  H         1 MOL        0.4238 ****
2216 Hw         15.080000   32.000000    6.060000  H         1 MOL        0.4238 ****
2217 Ow         30.050000    4.390000    6.740000  O         1 MOL       -0.8476 ****
2218 Hw         29.460000    5.190000    6.780000  H         1 MOL        0.4238 ****
2219 Hw         30.200000    4.040000    7.670000  H         1 MOL        0.4238 ****
2220 Ow          8.420000   29.520000   14.050000  O         1 MOL       -0.8476 ****
2221 Hw          8.370000   29.850000   15.000000  H         1 MOL        0.4238 ****
2222 Hw          7.560000   29.710000   13.590000  H         1 MOL        0.4238 ****
2223 Ow          0.490000   29.890000   12.650000  O         1 MOL       -0.8476 ****
2224 Hw          1.020000   29.400000   13.330000  H         1 MOL        0.4238 ****
2225 Hw          0.710000   30.870000   12.700000  H         1 MOL        0.4238 ****
2226 Ow          0.910000   29.190000    6.360000  O         1 MOL       -0.8476 ****
2227 Hw          0.900000   28.720000    7.240000  H         1 MOL        0.4238 ****
2228 Hw          1.730000   28.910000    5.850000  H         1 MOL        0.4238 ****
2229 Ow         29.320000   32.490000    7.760000  O         1 MOL       -0.8476 ****
2230 Hw         29.530000   33.230000    7.110000  H         1 MOL        0.4238 ****
2231 Hw         30.000000   32.490000    8.490000  H         1 MOL        0.4238 ****
2232 Ow         22.740000   12.610000   11.480000  O         1 MOL       -0.8476 ****
2233 Hw         21.810000   12.540000   11.110000  H         1 MOL        0.4238 ****
2234 Hw         22.850000   13.500000   11.920000  H         1 MOL        0.4238 ****
2235 Ow          2.420000   31.130000    5.210000  O         1 MOL       -0.8476 ****
2236 Hw          2.160000   32.090000    5.210000  H         1 MOL        0.4238 ****
2237 Hw          1.710000   30.590000    5.660000  H         1 MOL        0.4238 ****
2238 Ow         21.430000   20.710000   14.820000  O         1 MOL       -0.8476 ****
2239 Hw         22.250000   20.150000   14.910000  H         1 MOL        0.4238 ****
2240 Hw         20.620000   20.130000   14.860000  H         1 MOL        0.4238 ****
2241 Ow         25.640000   26.350000    8.440000  O         1 MOL       -0.8476 ****
2242 Hw         26.180000   25.660000    8.920000  H         1 MOL        0.4238 ****
2243 Hw         25.320000   27.040000    9.100000  H         1 MOL        0.4238 ****
2244 Ow         13.740000   11.300000    5.280000  O         1 MOL       -0.8476 ****
2245 Hw         14.570000   11.010000    4.800000  H         1 MOL        0.4238 ****
2246 Hw         13.250000   11.970000    4.720000  H         1 MOL        0.4238 ****
2247 Ow         27.220000   34.100000    7.360000  O         1 MOL       -0.8476 ****
2248 Hw         26.500000   34.150000    6.670000  H         1 MOL        0.4238 ****
2249 Hw         26.980000   33.410000    8.050000  H         1 MOL        0.4238 ****
2250 Ow         10.140000    7.820000   12.210000  O         1 MOL       -0.8476 ****
2251 Hw         10.550000    7.500000   13.070000  H         1 MOL        0.4238 ****
2252 Hw          9.180000    7.550000   12.180000  H         1 MOL        0.4238 ****
2253 Ow          1.000000   17.870000    9.100000  O         1 MOL       -0.8476 ****
2254 Hw          0.580000   17.010000    8.830000  H         1 MOL        0.4238 ****
2255 Hw          1.940000   17.900000    8.760000  H         1 MOL        0.4238 ****
2256 Ow         26.780000    8.760000   15.550000  O         1 MOL       -0.8476 ****
2257 Hw         27.240000    7.920000   15.260000  H         1 MOL        0.4238 ****
2258 Hw         26.220000    9.100000   14.800000  H         1 MOL        0.4238 ****
2259 Ow          4.140000    7.370000   15.810000  O         1 MOL       -0.8476 ****
2260 Hw          4.820000    7.920000   15.340000  H         1 MOL        0.4238 ****
2261 Hw          4.540000    6.490000   16.080000  H         1 MOL        0.4238 ****
2262 Ow         16.690000    5.900000   11.890000  O         1 MOL       -0.8476 ****
2263 Hw         16.310000    5.210000   12.510000  H         1 MOL        0.4238 ****
2264 Hw         17.510000    5.540000   11.450000  H         1 MOL        0.4238 ****
2265 Ow         22.660000    2.080000   11.300000  O         1 MOL       -0.8476 ****
2266 Hw         23.040000    1.240000   11.670000  H         1 MOL        0.4238 ****
2267 Hw         21.780000    2.270000   11.740000  H         1 MOL        0.4238 ****
2268 Ow         17.420000    9.200000   15.000000  O         1 MOL       -0.8476 ****
2269 Hw         17.800000   10.110000   15.150000  H         1 MOL        0.4238 ****
2270 Hw         17.340000    9.030000   14.010000  H         1 MOL        0.4238 ****
2271 Ow         11.230000   11.810000   10.830000  O         1 MOL       -0.8476 ****
2272 Hw         10.830000   12.250000   11.640000  H         1 MOL        0.4238 ****
2273 Hw         10.820000   12.180000   10.000000  H         1 MOL        0.4238 ****
2274 Ow         10.760000   13.330000   13.230000  O         1 MOL       -0.8476 ****
2275 Hw          9.960000   13.100000   13.780000  H         1 MOL        0.4238 ****
2276 Hw         11.590000   13.070000   13.720000  H         1 MOL        0.4238 ****
2277 Ow         25.170000   32.650000    6.700000  O         1 MOL       -0.8476 ****
2278 Hw         25.490000   32.750000    5.760000  H         1 MOL        0.4238 ****
2279 Hw         24.380000   32.030000    6.720000  H         1 MOL        0.4238 ****
2280 Ow         16.050000   19.000000    8.650000  O         1 MOL       -0.8476 ****
2281 Hw         15.210000   18.990000    9.190000  H         1 MOL        0.4238 ****
2282 Hw         16.070000   19.830000    8.090000  H         1 MOL        0.4238 ****
2283 Ow         26.350000   16.640000   14.480000  O         1 MOL       -0.8476 ****
2284 Hw         26.110000   16.460000   13.530000  H         1 MOL        0.4238 ****
2285 Hw         26.650000   17.580000   14.580000  H         1 MOL        0.4238 ****
2286 Ow         20.400000   14.210000   10.440000  O         1 MOL       -0.8476 ****
2287 Hw         19.620000   13.900000    9.910000  H         1 MOL        0.4238 ****
2288 Hw         20.980000   14.790000    9.870000  H         1 MOL        0.4238 ****
2289 Ow          8.780000   21.330000    6.250000  O         1 MOL       -0.8476 ****
2290 Hw          8.460000   22.050000    5.630000  H         1 MOL        0.4238 ****
2291 Hw          9.020000   20.520000    5.720000  H         1 MOL        0.4238 ****
2292 Ow         26.200000    0.750000   13.850000  O         1 MOL       -0.8476 ****
2293 Hw         26.450000    0.550000   12.900000  H         1 MOL        0.4238 ****
2294 Hw         26.920000    1.310000   14.270000  H         1 MOL        0.4238 ****
2295 Ow         13.630000   22.690000   14.160000  O         1 MOL       -0.8476 ****
2296 Hw         13.910000   22.260000   15.010000  H         1 MOL        0.4238 ****
2297 Hw         13.880000   23.650000   14.170000  H         1 MOL        0.4238 ****
2298 Ow         17.170000   31.660000   10.870000  O         1 MOL       -0.8476 ****
2299 Hw         16.240000   31.410000   10.600000  H         1 MOL        0.4238 ****
2300 Hw         17.430000   31.160000   11.690000  H         1 MOL        0.4238 ****
2301 Ow          7.800000   11.300000   10.060000  O         1 MOL       -0.8476 ****
2302 Hw          7.020000   11.470000   10.660000  H         1 MOL        0.4238 ****
2303 Hw          8.140000   12.170000    9.700000  H         1 MOL        0.4238 ****
2304 Ow          8.150000   13.880000    9.070000  O         1 MOL       -0.8476 ****
2305 Hw          9.050000   14.020000    8.650000  H         1 MOL        0.4238 ****
2306 Hw          7.440000   13.900000    8.360000  H         1 MOL        0.4238 ****
2307 Ow         11.720000   18.860000   14.600000  O         1 MOL       -0.8476 ****
2308 Hw         11.720000   19.500000   15.370000  H         1 MOL        0.4238 ****
2309 Hw         12.000000   19.340000   13.770000  H         1 MOL        0.4238 ****
2310 Ow         11.470000    6.890000    7.000000  O         1 MOL       -0.8476 ****
2311 Hw         12.040000    7.670000    6.750000  H         1 MOL        0.4238 ****
2312 Hw         10.870000    7.150000    7.760000  H         1 MOL        0.4238 ****
2313 Ow          5.730000   35.930000   11.300000  O         1 MOL       -0.8476 ****
2314 Hw          6.110000   35.090000   11.670000  H         1 MOL        0.4238 ****
2315 Hw          4.850000   36.120000   11.740000  H         1 MOL        0.4238 ****
2316 Ow         29.320000   15.560000    7.760000  O         1 MOL       -0.8476 ****
2317 Hw         29.530000   16.300000    7.110000  H         1 MOL        0.4238 ****
2318 Hw         30.000000   15.560000    8.490000  H         1 MOL        0.4238 ****
2319 Ow         13.720000   25.410000   10.280000  O         1 MOL       -0.8476 ****
2320 Hw         12.970000   25.410000    9.620000  H         1 MOL        0.4238 ****
2321 Hw         14.090000   24.490000   10.370000  H         1 MOL        0.4238 ****
2322 Ow         10.140000   24.750000   12.210000  O         1 MOL       -0.8476 ****
2323 Hw         10.550000   24.430000   13.070000  H         1 MOL        0.4238 ****
2324 Hw          9.180000   24.480000   12.180000  H         1 MOL        0.4238 ****
2325 Ow          5.730000    2.080000   11.300000  O         1 MOL       -0.8476 ****
2326 Hw          6.110000    1.240000   11.670000  H         1 MOL        0.4238 ****
2327 Hw          4.850000    2.270000   11.740000  H         1 MOL        0.4238 ****
2328 Ow          5.850000    8.560000   10.120000  O         1 MOL       -0.8476 ****
2329 Hw          6.290000    9.450000   10.030000  H         1 MOL        0.4238 ****
2330 Hw          5.220000    8.560000   10.890000  H         1 MOL        0.4238 ****
2331 Ow         10.880000    6.690000   14.470000  O         1 MOL       -0.8476 ****
2332 Hw         10.080000    6.080000   14.500000  H         1 MOL        0.4238 ****
2333 Hw         11.690000    6.160000   14.230000  H         1 MOL        0.4238 ****
2334 Ow         29.850000   26.060000    6.550000  O         1 MOL       -0.8476 ****
2335 Hw         30.450000   25.250000    6.570000  H         1 MOL        0.4238 ****
2336 Hw         30.250000   26.750000    5.950000  H         1 MOL        0.4238 ****
2337 Ow          0.900000    5.420000   13.690000  O         1 MOL       -0.8476 ****
2338 Hw          1.820000    5.410000   13.280000  H         1 MOL        0.4238 ****
2339 Hw          0.840000    6.160000   14.360000  H         1 MOL        0.4238 ****
2340 Ow         25.640000    9.420000    8.440000  O         1 MOL       -0.8476 ****
2341 Hw         26.180000    8.730000    8.920000  H         1 MOL        0.4238 ****
2342 Hw         25.320000   10.110000    9.100000  H         1 MOL        0.4238 ****
2343 Ow         14.410000   28.520000    8.500000  O         1 MOL       -0.8476 ****
2344 Hw         13.860000   27.680000    8.430000  H         1 MOL        0.4238 ****
2345 Hw         14.670000   28.810000    7.580000  H         1 MOL        0.4238 ****
2346 Ow         15.050000   17.530000    9.420000  O         1 MOL       -0.8476 ****
2347 Hw         15.380000   18.170000    8.730000  H         1 MOL        0.4238 ****
2348 Hw         15.710000   17.470000   10.170000  H         1 MOL        0.4238 ****
2349 Ow         20.220000   22.260000   12.630000  O         1 MOL       -0.8476 ****
2350 Hw         20.600000   21.670000   13.350000  H         1 MOL        0.4238 ****
2351 Hw         20.620000   22.000000   11.750000  H         1 MOL        0.4238 ****
2352 Ow          5.810000   29.540000   11.480000  O         1 MOL       -0.8476 ****
2353 Hw          4.880000   29.470000   11.110000  H         1 MOL        0.4238 ****
2354 Hw          5.920000   30.430000   11.920000  H         1 MOL        0.4238 ****
2355 Ow         26.960000   20.890000   12.250000  O         1 MOL       -0.8476 ****
2356 Hw         26.190000   21.230000   12.790000  H         1 MOL        0.4238 ****
2357 Hw         26.620000   20.380000   11.460000  H         1 MOL        0.4238 ****
2358 Ow          8.190000    5.910000   14.480000  O         1 MOL       -0.8476 ****
2359 Hw          7.720000    5.880000   15.370000  H         1 MOL        0.4238 ****
2360 Hw          7.680000    5.360000   13.820000  H         1 MOL        0.4238 ****
2361 Ow          4.500000    3.780000   14.820000  O         1 MOL       -0.8476 ****
2362 Hw          5.320000    3.220000   14.910000  H         1 MOL        0.4238 ****
2363 Hw          3.690000    3.200000   14.860000  H         1 MOL        0.4238 ****
2364 Ow         19.350000   31.130000    5.210000  O         1 MOL       -0.8476 ****
2365 Hw         19.090000   32.090000    5.210000  H         1 MOL        0.4238 ****
2366 Hw         18.640000   30.590000    5.660000  H         1 MOL        0.4238 ****
2367 Ow         17.690000   32.430000   13.140000  O         1 MOL       -0.8476 ****
2368 Hw         17.230000   33.250000   12.800000  H         1 MOL        0.4238 ****
2369 Hw         18.670000   32.620000   13.230000  H         1 MOL        0.4238 ****
2370 Ow         23.230000   15.530000   12.670000  O         1 MOL       -0.8476 ****
2371 Hw         23.180000   16.350000   13.240000  H         1 MOL        0.4238 ****
2372 Hw         24.120000   15.500000   12.220000  H         1 MOL        0.4238 ****
2373 Ow         28.160000   11.810000   10.830000  O         1 MOL       -0.8476 ****
2374 Hw         27.760000   12.250000   11.640000  H         1 MOL        0.4238 ****
2375 Hw         27.750000   12.180000   10.000000  H         1 MOL        0.4238 ****
2376 Ow         25.710000   21.330000    6.250000  O         1 MOL       -0.8476 ****
2377 Hw         25.390000   22.050000    5.630000  H         1 MOL        0.4238 ****
2378 Hw         25.950000   20.520000    5.720000  H         1 MOL        0.4238 ****
2379 Ow          9.850000   25.690000   15.550000  O         1 MOL       -0.8476 ****
2380 Hw         10.310000   24.850000   15.260000  H         1 MOL        0.4238 ****
2381 Hw          9.290000   26.030000   14.800000  H         1 MOL        0.4238 ****
2382 Ow          4.710000   11.380000    7.240000  O         1 MOL       -0.8476 ****
2383 Hw          4.000000   11.110000    7.890000  H         1 MOL        0.4238 ****
2384 Hw          4.450000   11.100000    6.310000  H         1 MOL        0.4238 ****
2385 Ow         19.450000   10.770000    8.690000  O         1 MOL       -0.8476 ****
2386 Hw         19.590000    9.930000    9.210000  H         1 MOL        0.4238 ****
2387 Hw         18.900000   11.410000    9.240000  H         1 MOL        0.4238 ****
2388 Ow          2.370000   19.540000    9.790000  O         1 MOL       -0.8476 ****
2389 Hw          2.720000   19.370000   10.710000  H         1 MOL        0.4238 ****
2390 Hw          1.490000   19.090000    9.670000  H         1 MOL        0.4238 ****
2391 Ow         17.930000   17.870000    9.100000  O         1 MOL       -0.8476 ****
2392 Hw         17.510000   17.010000    8.830000  H         1 MOL        0.4238 ****
2393 Hw         18.870000   17.900000    8.760000  H         1 MOL        0.4238 ****
2394 Ow         25.930000   31.930000   11.780000  O         1 MOL       -0.8476 ****
2395 Hw         25.700000   31.680000   10.840000  H         1 MOL        0.4238 ****
2396 Hw         26.540000   31.240000   12.170000  H         1 MOL        0.4238 ****
2397 Ow         16.060000    1.000000   14.630000  O         1 MOL       -0.8476 ****
2398 Hw         15.880000    1.670000   13.910000  H         1 MOL        0.4238 ****
2399 Hw         16.030000    1.460000   15.520000  H         1 MOL        0.4238 ****
2400 Ow         29.860000    3.310000    9.270000  O         1 MOL       -0.8476 ****
2401 Hw         29.000000    2.810000    9.140000  H         1 MOL        0.4238 ****
2402 Hw         30.480000    2.770000    9.830000  H         1 MOL        0.4238 ****
2403 Ow         17.240000    3.540000    6.300000  O         1 MOL       -0.8476 ****
2404 Hw         16.420000    3.970000    6.690000  H         1 MOL        0.4238 ****
2405 Hw         16.960000    2.810000    5.670000  H         1 MOL        0.4238 ****
2406 Ow         22.660000   35.930000   11.300000  O         1 MOL       -0.8476 ****
2407 Hw         23.040000   35.090000   11.670000  H         1 MOL        0.4238 ****
2408 Hw         21.780000   36.120000   11.740000  H         1 MOL        0.4238 ****
2409 Ow         30.650000   25.410000   10.280000  O         1 MOL       -0.8476 ****
2410 Hw         29.900000   25.410000    9.620000  H         1 MOL        0.4238 ****
2411 Hw         31.020000   24.490000   10.370000  H         1 MOL        0.4238 ****
2412 Ow          5.730000   19.010000   11.300000  O         1 MOL       -0.8476 ****
2413 Hw          6.110000   18.170000   11.670000  H         1 MOL        0.4238 ****
2414 Hw          4.850000   19.200000   11.740000  H         1 MOL        0.4238 ****
2415 Ow         14.520000   25.350000   13.810000  O         1 MOL       -0.8476 ****
2416 Hw         13.950000   25.870000   13.180000  H         1 MOL        0.4238 ****
2417 Hw         15.480000   25.470000   13.570000  H         1 MOL        0.4238 ****
2418 Ow         22.780000   25.490000   10.120000  O         1 MOL       -0.8476 ****
2419 Hw         23.220000   26.380000   10.030000  H         1 MOL        0.4238 ****
2420 Hw         22.150000   25.490000   10.890000  H         1 MOL        0.4238 ****
2421 Ow         10.260000   19.150000    9.540000  O         1 MOL       -0.8476 ****
2422 Hw         10.180000   18.790000    8.610000  H         1 MOL        0.4238 ****
2423 Hw         10.240000   18.390000   10.190000  H         1 MOL        0.4238 ****
2424 Ow         25.710000    4.400000    6.250000  O         1 MOL       -0.8476 ****
2425 Hw         25.390000    5.120000    5.630000  H         1 MOL        0.4238 ****
2426 Hw         25.950000    3.590000    5.720000  H         1 MOL        0.4238 ****
2427 Ow         12.640000   17.170000   11.110000  O         1 MOL       -0.8476 ****
2428 Hw         13.480000   17.220000   10.570000  H         1 MOL        0.4238 ****
2429 Hw         12.410000   16.210000   11.290000  H         1 MOL        0.4238 ****
2430 Ow          3.290000    5.330000   12.630000  O         1 MOL       -0.8476 ****
2431 Hw          3.670000    4.740000   13.350000  H         1 MOL        0.4238 ****
2432 Hw          3.690000    5.070000   11.750000  H         1 MOL        0.4238 ****
2433 Ow         23.660000   17.760000    9.360000  O         1 MOL       -0.8476 ****
2434 Hw         23.200000   18.640000    9.230000  H         1 MOL        0.4238 ****
2435 Hw         24.650000   17.880000    9.290000  H         1 MOL        0.4238 ****
2436 Ow         28.400000   23.820000    7.000000  O         1 MOL       -0.8476 ****
2437 Hw         28.970000   24.600000    6.750000  H         1 MOL        0.4238 ****
2438 Hw         27.800000   24.080000    7.760000  H         1 MOL        0.4238 ****
2439 Ow          9.850000    8.760000   15.550000  O         1 MOL       -0.8476 ****
2440 Hw         10.310000    7.920000   15.260000  H         1 MOL        0.4238 ****
2441 Hw          9.290000    9.100000   14.800000  H         1 MOL        0.4238 ****
2442 Ow          9.270000    0.750000   13.850000  O         1 MOL       -0.8476 ****
2443 Hw          9.520000    0.550000   12.900000  H         1 MOL        0.4238 ****
2444 Hw          9.990000    1.310000   14.270000  H         1 MOL        0.4238 ****
2445 Ow          6.730000   17.760000    9.360000  O         1 MOL       -0.8476 ****
2446 Hw          6.270000   18.640000    9.230000  H         1 MOL        0.4238 ****
2447 Hw          7.720000   17.880000    9.290000  H         1 MOL        0.4238 ****
2448 Ow         19.450000   27.700000    8.690000  O         1 MOL       -0.8476 ****
2449 Hw         19.590000   26.860000    9.210000  H         1 MOL        0.4238 ****
2450 Hw         18.900000   28.340000    9.240000  H         1 MOL        0.4238 ****
2451 Ow         21.640000   11.380000    7.240000  O         1 MOL       -0.8476 ****
2452 Hw         20.930000   11.110000    7.890000  H         1 MOL        0.4238 ****
2453 Hw         21.380000   11.100000    6.310000  H         1 MOL        0.4238 ****
2454 Ow          3.840000   29.670000   14.730000  O         1 MOL       -0.8476 ****
2455 Hw          3.710000   30.600000   14.390000  H         1 MOL        0.4238 ****
2456 Hw          3.000000   29.150000   14.600000  H         1 MOL        0.4238 ****
2457 Ow          6.840000   30.700000   16.070000  O         1 MOL       -0.8476 ****
2458 Hw          6.060000   30.200000   16.450000  H         1 MOL        0.4238 ****
2459 Hw          6.810000   31.650000   16.380000  H         1 MOL        0.4238 ****
2460 Ow          3.660000   31.890000   13.120000  O         1 MOL       -0.8476 ****
2461 Hw          3.450000   31.450000   12.250000  H         1 MOL        0.4238 ****
2462 Hw          4.630000   32.150000   13.150000  H         1 MOL        0.4238 ****
2463 Ow          6.300000   32.460000   12.670000  O         1 MOL       -0.8476 ****
2464 Hw          6.250000   33.280000   13.240000  H         1 MOL        0.4238 ****
2465 Hw          7.190000   32.430000   12.220000  H         1 MOL        0.4238 ****
2466 Ow         10.880000   23.620000   14.470000  O         1 MOL       -0.8476 ****
2467 Hw         10.080000   23.010000   14.500000  H         1 MOL        0.4238 ****
2468 Hw         11.690000   23.090000   14.230000  H         1 MOL        0.4238 ****
2469 Ow         27.690000   30.260000   13.230000  O         1 MOL       -0.8476 ****
2470 Hw         26.890000   30.030000   13.780000  H         1 MOL        0.4238 ****
2471 Hw         28.520000   30.000000   13.720000  H         1 MOL        0.4238 ****
2472 Ow         25.270000    9.880000   13.550000  O         1 MOL       -0.8476 ****
2473 Hw         25.670000    9.870000   12.630000  H         1 MOL        0.4238 ****
2474 Hw         25.370000   10.800000   13.950000  H         1 MOL        0.4238 ****
2475 Ow         27.060000   18.820000   11.370000  O         1 MOL       -0.8476 ****
2476 Hw         26.430000   18.100000   11.060000  H         1 MOL        0.4238 ****
2477 Hw         27.990000   18.460000   11.370000  H         1 MOL        0.4238 ****
2478 Ow          6.970000    9.980000    6.480000  O         1 MOL       -0.8476 ****
2479 Hw          7.660000    9.820000    7.180000  H         1 MOL        0.4238 ****
2480 Hw          6.240000   10.550000    6.860000  H         1 MOL        0.4238 ****
2481 Ow          2.520000   27.700000    8.690000  O         1 MOL       -0.8476 ****
2482 Hw          2.660000   26.860000    9.210000  H         1 MOL        0.4238 ****
2483 Hw          1.970000   28.340000    9.240000  H         1 MOL        0.4238 ****
2484 Ow         23.770000   35.740000   14.720000  O         1 MOL       -0.8476 ****
2485 Hw         24.670000   35.580000   14.320000  H         1 MOL        0.4238 ****
2486 Hw         23.850000   35.790000   15.710000  H         1 MOL        0.4238 ****
2487 Ow          9.420000   33.570000   14.480000  O         1 MOL       -0.8476 ****
2488 Hw          9.180000   33.390000   13.530000  H         1 MOL        0.4238 ****
2489 Hw          9.720000   34.510000   14.580000  H         1 MOL        0.4238 ****
2490 Ow         17.010000   26.010000    5.950000  O         1 MOL       -0.8476 ****
2491 Hw         17.960000   25.720000    6.030000  H         1 MOL        0.4238 ****
2492 Hw         16.930000   26.660000    5.200000  H         1 MOL        0.4238 ****
2493 Ow         20.770000   12.740000   14.730000  O         1 MOL       -0.8476 ****
2494 Hw         20.640000   13.670000   14.390000  H         1 MOL        0.4238 ****
2495 Hw         19.930000   12.220000   14.600000  H         1 MOL        0.4238 ****
2496 Ow         26.270000   21.820000    8.820000  O         1 MOL       -0.8476 ****
2497 Hw         26.020000   21.730000    7.860000  H         1 MOL        0.4238 ****
2498 Hw         26.750000   21.000000    9.130000  H         1 MOL        0.4238 ****
2499 Ow          8.340000    9.880000   13.550000  O         1 MOL       -0.8476 ****
2500 Hw          8.740000    9.870000   12.630000  H         1 MOL        0.4238 ****
2501 Hw          8.440000   10.800000   13.950000  H         1 MOL        0.4238 ****
2502 Ow          3.470000   14.210000   10.440000  O         1 MOL       -0.8476 ****
2503 Hw          2.690000   13.900000    9.910000  H         1 MOL        0.4238 ****
2504 Hw          4.050000   14.790000    9.870000  H         1 MOL        0.4238 ****
2505 Ow         25.080000   30.810000    9.070000  O         1 MOL       -0.8476 ****
2506 Hw         25.980000   30.950000    8.650000  H         1 MOL        0.4238 ****
2507 Hw         24.370000   30.830000    8.360000  H         1 MOL        0.4238 ****
2508 Ow         16.060000   34.850000   14.630000  O         1 MOL       -0.8476 ****
2509 Hw         15.880000   35.520000   13.910000  H         1 MOL        0.4238 ****
2510 Hw         16.030000   35.310000   15.520000  H         1 MOL        0.4238 ****
2511 Ow         28.160000   28.740000   10.830000  O         1 MOL       -0.8476 ****
2512 Hw         27.760000   29.180000   11.640000  H         1 MOL        0.4238 ****
2513 Hw         27.750000   29.110000   10.000000  H         1 MOL        0.4238 ****
2514 Ow         26.200000   17.680000   13.850000  O         1 MOL       -0.8476 ****
2515 Hw         26.450000   17.480000   12.900000  H         1 MOL        0.4238 ****
2516 Hw         26.920000   18.240000   14.270000  H         1 MOL        0.4238 ****
2517 Ow          6.250000   25.210000   14.140000  O         1 MOL       -0.8476 ****
2518 Hw          6.810000   26.020000   13.970000  H         1 MOL        0.4238 ****
2519 Hw          6.840000   24.410000   14.170000  H         1 MOL        0.4238 ****
2520 Ow         25.930000   15.000000   11.780000  O         1 MOL       -0.8476 ****
2521 Hw         25.700000   14.750000   10.840000  H         1 MOL        0.4238 ****
2522 Hw         26.540000   14.310000   12.170000  H         1 MOL        0.4238 ****
2523 Ow          5.780000    5.230000    8.480000  O         1 MOL       -0.8476 ****
2524 Hw          5.900000    5.890000    7.740000  H         1 MOL        0.4238 ****
2525 Hw          6.240000    5.570000    9.310000  H         1 MOL        0.4238 ****
2526 Ow          0.880000    7.970000    7.720000  O         1 MOL       -0.8476 ****
2527 Hw          1.870000    7.850000    7.810000  H         1 MOL        0.4238 ****
2528 Hw          0.640000    8.920000    7.930000  H         1 MOL        0.4238 ****
2529 Ow         19.070000   19.640000   14.810000  O         1 MOL       -0.8476 ****
2530 Hw         18.270000   20.240000   14.680000  H         1 MOL        0.4238 ****
2531 Hw         18.970000   19.150000   15.670000  H         1 MOL        0.4238 ****
2532 Ow         17.550000   22.970000    8.390000  O         1 MOL       -0.8476 ****
2533 Hw         17.880000   23.910000    8.390000  H         1 MOL        0.4238 ****
2534 Hw         18.060000   22.430000    9.050000  H         1 MOL        0.4238 ****
2535 Ow         22.780000    8.560000   10.120000  O         1 MOL       -0.8476 ****
2536 Hw         23.220000    9.450000   10.030000  H         1 MOL        0.4238 ****
2537 Hw         22.150000    8.560000   10.890000  H         1 MOL        0.4238 ****
2538 Ow         16.760000   12.660000    6.400000  O         1 MOL       -0.8476 ****
2539 Hw         17.750000   12.740000    6.540000  H         1 MOL        0.4238 ****
2540 Hw         16.310000   13.500000    6.710000  H         1 MOL        0.4238 ****
2541 Ow          8.240000   32.650000    6.700000  O         1 MOL       -0.8476 ****
2542 Hw          8.560000   32.750000    5.760000  H         1 MOL        0.4238 ****
2543 Hw          7.450000   32.030000    6.720000  H         1 MOL        0.4238 ****
2544 Ow          8.240000   15.720000    6.700000  O         1 MOL       -0.8476 ****
2545 Hw          8.560000   15.820000    5.760000  H         1 MOL        0.4238 ****
2546 Hw          7.450000   15.100000    6.720000  H         1 MOL        0.4238 ****
2547 Ow         12.840000   31.240000   11.250000  O         1 MOL       -0.8476 ****
2548 Hw         13.310000   31.370000   12.120000  H         1 MOL        0.4238 ****
2549 Hw         12.180000   30.500000   11.340000  H         1 MOL        0.4238 ****
2550 Ow          4.020000   34.200000   15.430000  O         1 MOL       -0.8476 ****
2551 Hw          3.110000   34.610000   15.410000  H         1 MOL        0.4238 ****
2552 Hw          3.950000   33.260000   15.750000  H         1 MOL        0.4238 ****
2553 Ow          2.090000    9.620000   12.470000  O         1 MOL       -0.8476 ****
2554 Hw          2.980000    9.170000   12.330000  H         1 MOL        0.4238 ****
2555 Hw          1.360000    8.970000   12.280000  H         1 MOL        0.4238 ****
2556 Ow         16.060000   17.930000   14.630000  O         1 MOL       -0.8476 ****
2557 Hw         15.880000   18.600000   13.910000  H         1 MOL        0.4238 ****
2558 Hw         16.030000   18.390000   15.520000  H         1 MOL        0.4238 ****
2559 Ow         13.630000    5.760000   14.160000  O         1 MOL       -0.8476 ****
2560 Hw         13.910000    5.330000   15.010000  H         1 MOL        0.4238 ****
2561 Hw         13.880000    6.720000   14.170000  H         1 MOL        0.4238 ****
2562 Ow         29.980000   12.140000   14.060000  O         1 MOL       -0.8476 ****
2563 Hw         30.350000   11.410000   13.480000  H         1 MOL        0.4238 ****
2564 Hw         30.500000   12.190000   14.910000  H         1 MOL        0.4238 ****
2565 Ow          6.250000    8.280000   14.140000  O         1 MOL       -0.8476 ****
2566 Hw          6.810000    9.090000   13.970000  H         1 MOL        0.4238 ****
2567 Hw          6.840000    7.480000   14.170000  H         1 MOL        0.4238 ****
2568 Ow         22.990000    7.310000    6.350000  O         1 MOL       -0.8476 ****
2569 Hw         23.490000    8.160000    6.160000  H         1 MOL        0.4238 ****
2570 Hw         22.110000    7.330000    5.870000  H         1 MOL        0.4238 ****
2571 Ow         17.040000   32.480000    8.340000  O         1 MOL       -0.8476 ****
2572 Hw         16.330000   32.360000    7.640000  H         1 MOL        0.4238 ****
2573 Hw         17.050000   31.690000    8.940000  H         1 MOL        0.4238 ****
2574 Ow         16.150000    4.330000    7.200000  O         1 MOL       -0.8476 ****
2575 Hw         15.410000    4.790000    6.700000  H         1 MOL        0.4238 ****
2576 Hw         16.660000    5.010000    7.730000  H         1 MOL        0.4238 ****
2577 Ow          3.310000    7.960000    9.320000  O         1 MOL       -0.8476 ****
2578 Hw          4.240000    8.320000    9.370000  H         1 MOL        0.4238 ****
2579 Hw          3.250000    7.110000    9.840000  H         1 MOL        0.4238 ****
2580 Ow          3.190000   34.340000    6.010000  O         1 MOL       -0.8476 ****
2581 Hw          3.080000   35.280000    6.340000  H         1 MOL        0.4238 ****
2582 Hw          3.140000   33.710000    6.780000  H         1 MOL        0.4238 ****
2583 Ow         17.830000   22.350000   13.690000  O         1 MOL       -0.8476 ****
2584 Hw         18.750000   22.340000   13.280000  H         1 MOL        0.4238 ****
2585 Hw         17.770000   23.090000   14.360000  H         1 MOL        0.4238 ****
2586 Ow          5.160000   15.540000    8.930000  O         1 MOL       -0.8476 ****
2587 Hw          5.820000   16.280000    9.020000  H         1 MOL        0.4238 ****
2588 Hw          5.600000   14.750000    8.510000  H         1 MOL        0.4238 ****
2589 Ow         19.020000    9.620000   12.470000  O         1 MOL       -0.8476 ****
2590 Hw         19.910000    9.170000   12.330000  H         1 MOL        0.4238 ****
2591 Hw         18.290000    8.970000   12.280000  H         1 MOL        0.4238 ****
2592 Ow         14.780000    5.760000    9.750000  O         1 MOL       -0.8476 ****
2593 Hw         14.480000    4.810000    9.820000  H         1 MOL        0.4238 ****
2594 Hw         15.510000    5.920000   10.410000  H         1 MOL        0.4238 ****
2595 Ow         29.850000    9.130000    6.550000  O         1 MOL       -0.8476 ****
2596 Hw         30.450000    8.320000    6.570000  H         1 MOL        0.4238 ****
2597 Hw         30.250000    9.820000    5.950000  H         1 MOL        0.4238 ****
2598 Ow         17.210000   20.640000   13.640000  O         1 MOL       -0.8476 ****
2599 Hw         17.940000   21.330000   13.680000  H         1 MOL        0.4238 ****
2600 Hw         17.490000   19.890000   13.050000  H         1 MOL        0.4238 ****
2601 Ow         18.350000   18.070000   15.540000  O         1 MOL       -0.8476 ****
2602 Hw         18.250000   17.920000   16.530000  H         1 MOL        0.4238 ****
2603 Hw         17.490000   18.430000   15.180000  H         1 MOL        0.4238 ****
2604 Ow          8.780000    4.400000    6.250000  O         1 MOL       -0.8476 ****
2605 Hw          8.460000    5.120000    5.630000  H         1 MOL        0.4238 ****
2606 Hw          9.020000    3.590000    5.720000  H         1 MOL        0.4238 ****
2607 Ow         30.560000    5.760000   14.160000  O         1 MOL       -0.8476 ****
2608 Hw         30.840000    5.330000   15.010000  H         1 MOL        0.4238 ****
2609 Hw         30.810000    6.720000   14.170000  H         1 MOL        0.4238 ****
2610 Ow         18.360000   35.630000   12.100000  O         1 MOL       -0.8476 ****
2611 Hw         18.320000   34.730000   12.540000  H         1 MOL        0.4238 ****
2612 Hw         18.390000   35.520000   11.110000  H         1 MOL        0.4238 ****
2613 Ow         20.120000    1.990000   12.140000  O         1 MOL       -0.8476 ****
2614 Hw         19.890000    2.360000   13.040000  H         1 MOL        0.4238 ****
2615 Hw         19.820000    1.040000   12.080000  H         1 MOL        0.4238 ****
2616 Ow         20.120000   34.340000    6.010000  O         1 MOL       -0.8476 ****
2617 Hw         20.010000   35.280000    6.340000  H         1 MOL        0.4238 ****
2618 Hw         20.070000   33.710000    6.780000  H         1 MOL        0.4238 ****
2619 Ow         10.800000   13.190000    8.320000  O         1 MOL       -0.8476 ****
2620 Hw         10.870000   12.350000    7.770000  H         1 MOL        0.4238 ****
2621 Hw         11.420000   13.880000    7.960000  H         1 MOL        0.4238 ****
2622 Ow         14.780000   22.690000    9.750000  O         1 MOL       -0.8476 ****
2623 Hw         14.480000   21.740000    9.820000  H         1 MOL        0.4238 ****
2624 Hw         15.510000   22.850000   10.410000  H         1 MOL        0.4238 ****
2625 Ow         23.760000   21.430000   12.520000  O         1 MOL       -0.8476 ****
2626 Hw         23.420000   20.540000   12.220000  H         1 MOL        0.4238 ****
2627 Hw         24.020000   21.970000   11.720000  H         1 MOL        0.4238 ****
2628 Ow         27.070000    7.820000   12.210000  O         1 MOL       -0.8476 ****
2629 Hw         27.480000    7.500000   13.070000  H         1 MOL        0.4238 ****
2630 Hw         26.110000    7.550000   12.180000  H         1 MOL        0.4238 ****
2631 Ow         14.720000   14.910000   13.220000  O         1 MOL       -0.8476 ****
2632 Hw         14.960000   15.850000   13.480000  H         1 MOL        0.4238 ****
2633 Hw         14.560000   14.370000   14.040000  H         1 MOL        0.4238 ****
2634 Ow          9.000000   31.930000   11.780000  O         1 MOL       -0.8476 ****
2635 Hw          8.770000   31.680000   10.840000  H         1 MOL        0.4238 ****
2636 Hw          9.610000   31.240000   12.170000  H         1 MOL        0.4238 ****
2637 Ow         21.640000   28.310000    7.240000  O         1 MOL       -0.8476 ****
2638 Hw         20.930000   28.040000    7.890000  H         1 MOL        0.4238 ****
2639 Hw         21.380000   28.030000    6.310000  H         1 MOL        0.4238 ****
2640 Ow         14.780000   30.960000    9.360000  O         1 MOL       -0.8476 ****
2641 Hw         14.190000   31.020000   10.160000  H         1 MOL        0.4238 ****
2642 Hw         14.630000   30.080000    8.900000  H         1 MOL        0.4238 ****
2643 Ow          5.620000    1.820000    8.680000  O         1 MOL       -0.8476 ****
2644 Hw          5.570000    1.770000    9.680000  H         1 MOL        0.4238 ****
2645 Hw          5.640000    2.780000    8.390000  H         1 MOL        0.4238 ****
2646 Ow         17.840000   12.260000    6.360000  O         1 MOL       -0.8476 ****
2647 Hw         17.830000   11.790000    7.240000  H         1 MOL        0.4238 ****
2648 Hw         18.660000   11.980000    5.850000  H         1 MOL        0.4238 ****
2649 Ow         12.860000    3.720000   12.450000  O         1 MOL       -0.8476 ****
2650 Hw         13.070000    4.460000   13.090000  H         1 MOL        0.4238 ****
2651 Hw         11.970000    3.890000   12.020000  H         1 MOL        0.4238 ****
2652 Ow         10.260000   36.070000    9.540000  O         1 MOL       -0.8476 ****
2653 Hw         10.180000   35.710000    8.610000  H         1 MOL        0.4238 ****
2654 Hw         10.240000   35.310000   10.190000  H         1 MOL        0.4238 ****
2655 Ow         19.540000   17.710000   12.240000  O         1 MOL       -0.8476 ****
2656 Hw         20.110000   17.060000   12.740000  H         1 MOL        0.4238 ****
2657 Hw         19.380000   17.380000   11.310000  H         1 MOL        0.4238 ****
2658 Ow         29.790000    3.720000   12.450000  O         1 MOL       -0.8476 ****
2659 Hw         30.000000    4.460000   13.090000  H         1 MOL        0.4238 ****
2660 Hw         28.900000    3.890000   12.020000  H         1 MOL        0.4238 ****
2661 Ow         16.620000   33.990000   13.770000  O         1 MOL       -0.8476 ****
2662 Hw         17.150000   34.090000   12.930000  H         1 MOL        0.4238 ****
2663 Hw         16.350000   34.890000   14.110000  H         1 MOL        0.4238 ****
2664 Ow         10.350000   24.450000    9.490000  O         1 MOL       -0.8476 ****
2665 Hw         10.500000   24.660000   10.450000  H         1 MOL        0.4238 ****
2666 Hw         10.050000   23.500000    9.400000  H         1 MOL        0.4238 ****
2667 Ow         27.730000   30.120000    8.320000  O         1 MOL       -0.8476 ****
2668 Hw         27.800000   29.280000    7.770000  H         1 MOL        0.4238 ****
2669 Hw         28.350000   30.810000    7.960000  H         1 MOL        0.4238 ****
2670 Ow         17.170000   14.730000   10.870000  O         1 MOL       -0.8476 ****
2671 Hw         16.240000   14.480000   10.600000  H         1 MOL        0.4238 ****
2672 Hw         17.430000   14.230000   11.690000  H         1 MOL        0.4238 ****
2673 Ow         13.120000   21.320000    6.740000  O         1 MOL       -0.8476 ****
2674 Hw         12.530000   22.120000    6.780000  H         1 MOL        0.4238 ****
2675 Hw         13.270000   20.970000    7.670000  H         1 MOL        0.4238 ****
2676 Ow         18.070000   27.450000    8.560000  O         1 MOL       -0.8476 ****
2677 Hw         17.450000   27.300000    7.800000  H         1 MOL        0.4238 ****
2678 Hw         17.550000   27.560000    9.410000  H         1 MOL        0.4238 ****
2679 Ow         12.920000    9.130000    6.550000  O         1 MOL       -0.8476 ****
2680 Hw         13.520000    8.320000    6.570000  H         1 MOL        0.4238 ****
2681 Hw         13.320000    9.820000    5.950000  H         1 MOL        0.4238 ****
2682 Ow         13.590000   27.380000   12.170000  O         1 MOL       -0.8476 ****
2683 Hw         13.830000   26.750000   11.430000  H         1 MOL        0.4238 ****
2684 Hw         12.690000   27.780000   11.990000  H         1 MOL        0.4238 ****
2685 Ow          3.840000   12.740000   14.730000  O         1 MOL       -0.8476 ****
2686 Hw          3.710000   13.670000   14.390000  H         1 MOL        0.4238 ****
2687 Hw          3.000000   12.220000   14.600000  H         1 MOL        0.4238 ****
2688 Ow          9.340000    4.890000    8.820000  O         1 MOL       -0.8476 ****
2689 Hw          9.090000    4.800000    7.860000  H         1 MOL        0.4238 ****
2690 Hw          9.820000    4.070000    9.130000  H         1 MOL        0.4238 ****
2691 Ow         23.900000   26.910000    6.480000  O         1 MOL       -0.8476 ****
2692 Hw         24.590000   26.750000    7.180000  H         1 MOL        0.4238 ****
2693 Hw         23.170000   27.480000    6.860000  H         1 MOL        0.4238 ****
2694 Ow         20.560000   34.800000    8.360000  O         1 MOL       -0.8476 ****
2695 Hw         21.060000   33.940000    8.420000  H         1 MOL        0.4238 ****
2696 Hw         21.210000   35.570000    8.330000  H         1 MOL        0.4238 ****
2697 Ow         23.770000   18.820000   14.720000  O         1 MOL       -0.8476 ****
2698 Hw         24.670000   18.660000   14.320000  H         1 MOL        0.4238 ****
2699 Hw         23.850000   18.870000   15.710000  H         1 MOL        0.4238 ****
2700 Ow          8.340000   26.810000   13.550000  O         1 MOL       -0.8476 ****
2701 Hw          8.740000   26.800000   12.630000  H         1 MOL        0.4238 ****
2702 Hw          8.440000   27.730000   13.950000  H         1 MOL        0.4238 ****
2703 Ow          0.090000   31.970000   15.880000  O         1 MOL       -0.8476 ****
2704 Hw          0.230000   32.240000   14.930000  H         1 MOL        0.4238 ****
2705 Hw          0.920000   32.190000   16.410000  H         1 MOL        0.4238 ****
2706 Ow         10.130000   18.820000   11.370000  O         1 MOL       -0.8476 ****
2707 Hw          9.500000   18.100000   11.060000  H         1 MOL        0.4238 ****
2708 Hw         11.060000   18.460000   11.370000  H         1 MOL        0.4238 ****
2709 Ow         21.150000    7.990000   12.340000  O         1 MOL       -0.8476 ****
2710 Hw         22.010000    8.110000   12.840000  H         1 MOL        0.4238 ****
2711 Hw         20.730000    7.120000   12.610000  H         1 MOL        0.4238 ****
2712 Ow          6.320000   34.650000   14.220000  O         1 MOL       -0.8476 ****
2713 Hw          5.400000   34.480000   14.570000  H         1 MOL        0.4238 ****
2714 Hw          6.600000   35.570000   14.480000  H         1 MOL        0.4238 ****
2715 Ow          3.190000    1.990000   12.140000  O         1 MOL       -0.8476 ****
2716 Hw          2.960000    2.360000   13.040000  H         1 MOL        0.4238 ****
2717 Hw          2.890000    1.040000   12.080000  H         1 MOL        0.4238 ****
2718 Ow         27.810000    6.690000   14.470000  O         1 MOL       -0.8476 ****
2719 Hw         27.010000    6.080000   14.500000  H         1 MOL        0.4238 ****
2720 Hw         28.620000    6.160000   14.230000  H         1 MOL        0.4238 ****
2721 Ow         18.640000   11.230000   14.490000  O         1 MOL       -0.8476 ****
2722 Hw         18.860000   10.620000   15.250000  H         1 MOL        0.4238 ****
2723 Hw         18.740000   10.740000   13.630000  H         1 MOL        0.4238 ****
2724 Ow          0.900000   22.350000   13.690000  O         1 MOL       -0.8476 ****
2725 Hw          1.820000   22.340000   13.280000  H         1 MOL        0.4238 ****
2726 Hw          0.840000   23.090000   14.360000  H         1 MOL        0.4238 ****
2727 Ow          5.160000   32.470000    8.930000  O         1 MOL       -0.8476 ****
2728 Hw          5.820000   33.210000    9.020000  H         1 MOL        0.4238 ****
2729 Hw          5.600000   31.680000    8.510000  H         1 MOL        0.4238 ****
2730 Ow         12.390000   15.360000   14.890000  O         1 MOL       -0.8476 ****
2731 Hw         12.450000   14.590000   15.530000  H         1 MOL        0.4238 ****
2732 Hw         11.870000   15.100000   14.090000  H         1 MOL        0.4238 ****
2733 Ow         19.300000    2.610000    9.790000  O         1 MOL       -0.8476 ****
2734 Hw         19.650000    2.440000   10.710000  H         1 MOL        0.4238 ****
2735 Hw         18.420000    2.160000    9.670000  H         1 MOL        0.4238 ****
2736 Ow         12.930000    3.310000    9.270000  O         1 MOL       -0.8476 ****
2737 Hw         12.070000    2.810000    9.140000  H         1 MOL        0.4238 ****
2738 Hw         13.550000    2.770000    9.830000  H         1 MOL        0.4238 ****
2739 Ow          0.520000    5.300000   10.970000  O         1 MOL       -0.8476 ****
2740 Hw          1.370000    4.970000   10.560000  H         1 MOL        0.4238 ****
2741 Hw          0.650000    5.450000   11.950000  H         1 MOL        0.4238 ****
2742 Ow         17.840000   29.190000    6.360000  O         1 MOL       -0.8476 ****
2743 Hw         17.830000   28.720000    7.240000  H         1 MOL        0.4238 ****
2744 Hw         18.660000   28.910000    5.850000  H         1 MOL        0.4238 ****
2745 Ow         27.070000   24.750000   12.210000  O         1 MOL       -0.8476 ****
2746 Hw         27.480000   24.430000   13.070000  H         1 MOL        0.4238 ****
2747 Hw         26.110000   24.480000   12.180000  H         1 MOL        0.4238 ****
2748 Ow          0.490000   12.960000   12.650000  O         1 MOL       -0.8476 ****
2749 Hw          1.020000   12.470000   13.330000  H         1 MOL        0.4238 ****
2750 Hw          0.710000   13.940000   12.700000  H         1 MOL        0.4238 ****
2751 Ow         20.590000   14.960000   13.120000  O         1 MOL       -0.8476 ****
2752 Hw         20.380000   14.520000   12.250000  H         1 MOL        0.4238 ****
2753 Hw         21.560000   15.220000   13.150000  H         1 MOL        0.4238 ****
2754 Ow         28.920000   17.780000   15.990000  O         1 MOL       -0.8476 ****
2755 Hw         29.160000   18.380000   15.230000  H         1 MOL        0.4238 ****
2756 Hw         28.990000   16.830000   15.690000  H         1 MOL        0.4238 ****
2757 Ow         10.290000   17.180000    7.360000  O         1 MOL       -0.8476 ****
2758 Hw          9.570000   17.230000    6.670000  H         1 MOL        0.4238 ****
2759 Hw         10.050000   16.490000    8.050000  H         1 MOL        0.4238 ****
2760 Ow         29.790000   20.650000   12.450000  O         1 MOL       -0.8476 ****
2761 Hw         30.000000   21.390000   13.090000  H         1 MOL        0.4238 ****
2762 Hw         28.900000   20.820000   12.020000  H         1 MOL        0.4238 ****
2763 Ow         26.450000   33.770000    8.870000  O         1 MOL       -0.8476 ****
2764 Hw         27.250000   33.200000    9.080000  H         1 MOL        0.4238 ****
2765 Hw         25.960000   33.370000    8.100000  H         1 MOL        0.4238 ****
2766 Ow         11.470000   23.820000    7.000000  O         1 MOL       -0.8476 ****
2767 Hw         12.040000   24.600000    6.750000  H         1 MOL        0.4238 ****
2768 Hw         10.870000   24.080000    7.760000  H         1 MOL        0.4238 ****
2769 Ow         18.270000    6.290000    5.460000  O         1 MOL       -0.8476 ****
2770 Hw         17.820000    5.410000    5.630000  H         1 MOL        0.4238 ****
2771 Hw         18.260000    6.830000    6.300000  H         1 MOL        0.4238 ****
2772 Ow         27.220000   17.180000    7.360000  O         1 MOL       -0.8476 ****
2773 Hw         26.500000   17.230000    6.670000  H         1 MOL        0.4238 ****
2774 Hw         26.980000   16.490000    8.050000  H         1 MOL        0.4238 ****
2775 Ow         21.150000   24.920000   12.340000  O         1 MOL       -0.8476 ****
2776 Hw         22.010000   25.040000   12.840000  H         1 MOL        0.4238 ****
2777 Hw         20.730000   24.050000   12.610000  H         1 MOL        0.4238 ****
2778 Ow         10.510000   27.770000    6.790000  O         1 MOL       -0.8476 ****
2779 Hw          9.810000   27.300000    7.330000  H         1 MOL        0.4238 ****
2780 Hw         11.100000   27.090000    6.360000  H         1 MOL        0.4238 ****
2781 Ow         29.760000   34.760000    5.740000  O         1 MOL       -0.8476 ****
2782 Hw         30.200000   35.400000    5.100000  H         1 MOL        0.4238 ****
2783 Hw         29.260000   35.280000    6.440000  H         1 MOL        0.4238 ****
2784 Ow         30.650000    8.480000   10.280000  O         1 MOL       -0.8476 ****
2785 Hw         29.900000    8.480000    9.620000  H         1 MOL        0.4238 ****
2786 Hw         31.020000    7.560000   10.370000  H         1 MOL        0.4238 ****
2787 Ow          8.150000   30.810000    9.070000  O         1 MOL       -0.8476 ****
2788 Hw          9.050000   30.950000    8.650000  H         1 MOL        0.4238 ****
2789 Hw          7.440000   30.830000    8.360000  H         1 MOL        0.4238 ****
2790 Ow         23.760000    4.500000   12.520000  O         1 MOL       -0.8476 ****
2791 Hw         23.420000    3.610000   12.220000  H         1 MOL        0.4238 ****
2792 Hw         24.020000    5.040000   11.720000  H         1 MOL        0.4238 ****
2793 Ow         30.560000   22.690000   14.160000  O         1 MOL       -0.8476 ****
2794 Hw         30.840000   22.260000   15.010000  H         1 MOL        0.4238 ****
2795 Hw         30.810000   23.650000   14.170000  H         1 MOL        0.4238 ****
2796 Ow         14.360000    2.000000   10.950000  O         1 MOL       -0.8476 ****
2797 Hw         14.880000    1.350000   11.500000  H         1 MOL        0.4238 ****
2798 Hw         13.870000    2.630000   11.560000  H         1 MOL        0.4238 ****
2799 Ow         25.170000   15.720000    6.700000  O         1 MOL       -0.8476 ****
2800 Hw         25.490000   15.820000    5.760000  H         1 MOL        0.4238 ****
2801 Hw         24.380000   15.100000    6.720000  H         1 MOL        0.4238 ****
2802 Ow         28.650000   18.860000   14.600000  O         1 MOL       -0.8476 ****
2803 Hw         28.650000   19.500000   15.370000  H         1 MOL        0.4238 ****
2804 Hw         28.930000   19.340000   13.770000  H         1 MOL        0.4238 ****
2805 Ow          1.710000   28.160000   14.490000  O         1 MOL       -0.8476 ****
2806 Hw          1.930000   27.550000   15.250000  H         1 MOL        0.4238 ****
2807 Hw          1.810000   27.670000   13.630000  H         1 MOL        0.4238 ****
2808 Ow         10.030000    3.960000   12.250000  O         1 MOL       -0.8476 ****
2809 Hw          9.260000    4.300000   12.790000  H         1 MOL        0.4238 ****
2810 Hw          9.690000    3.450000   11.460000  H         1 MOL        0.4238 ****
2811 Ow         27.190000   19.150000    9.540000  O         1 MOL       -0.8476 ****
2812 Hw         27.110000   18.790000    8.610000  H         1 MOL        0.4238 ****
2813 Hw         27.170000   18.390000   10.190000  H         1 MOL        0.4238 ****
2814 Ow         11.720000    1.930000   14.600000  O         1 MOL       -0.8476 ****
2815 Hw         11.720000    2.570000   15.370000  H         1 MOL        0.4238 ****
2816 Hw         12.000000    2.410000   13.770000  H         1 MOL        0.4238 ****
2817 Ow         23.250000   17.720000   14.220000  O         1 MOL       -0.8476 ****
2818 Hw         22.330000   17.550000   14.570000  H         1 MOL        0.4238 ****
2819 Hw         23.530000   18.640000   14.480000  H         1 MOL        0.4238 ****
2820 Ow         20.950000   34.200000   15.430000  O         1 MOL       -0.8476 ****
2821 Hw         20.040000   34.610000   15.410000  H         1 MOL        0.4238 ****
2822 Hw         20.880000   33.260000   15.750000  H         1 MOL        0.4238 ****
2823 Ow         23.660000   34.690000    9.360000  O         1 MOL       -0.8476 ****
2824 Hw         23.200000   35.570000    9.230000  H         1 MOL        0.4238 ****
2825 Hw         24.650000   34.810000    9.290000  H         1 MOL        0.4238 ****
2826 Ow         16.260000   29.710000   12.720000  O         1 MOL       -0.8476 ****
2827 Hw         16.860000   29.740000   13.520000  H         1 MOL        0.4238 ****
2828 Hw         15.510000   30.350000   12.850000  H         1 MOL        0.4238 ****
2829 Ow         10.800000   30.120000    8.320000  O         1 MOL       -0.8476 ****
2830 Hw         10.870000   29.280000    7.770000  H         1 MOL        0.4238 ****
2831 Hw         11.420000   30.810000    7.960000  H         1 MOL        0.4238 ****
2832 Ow         17.450000    5.300000   10.970000  O         1 MOL       -0.8476 ****
2833 Hw         18.300000    4.970000   10.560000  H         1 MOL        0.4238 ****
2834 Hw         17.580000    5.450000   11.950000  H         1 MOL        0.4238 ****
2835 Ow         16.620000   17.060000   13.770000  O         1 MOL       -0.8476 ****
2836 Hw         17.150000   17.160000   12.930000  H         1 MOL        0.4238 ****
2837 Hw         16.350000   17.960000   14.110000  H         1 MOL        0.4238 ****
2838 Ow         27.690000   13.330000   13.230000  O         1 MOL       -0.8476 ****
2839 Hw         26.890000   13.100000   13.780000  H         1 MOL        0.4238 ****
2840 Hw         28.520000   13.070000   13.720000  H         1 MOL        0.4238 ****
2841 Ow         25.120000    5.910000   14.480000  O         1 MOL       -0.8476 ****
2842 Hw         24.650000    5.880000   15.370000  H         1 MOL        0.4238 ****
2843 Hw         24.610000    5.360000   13.820000  H         1 MOL        0.4238 ****
2844 Ow          9.520000   16.840000    8.870000  O         1 MOL       -0.8476 ****
2845 Hw         10.320000   16.270000    9.080000  H         1 MOL        0.4238 ****
2846 Hw          9.030000   16.440000    8.100000  H         1 MOL        0.4238 ****
2847 Ow         20.770000   29.670000   14.730000  O         1 MOL       -0.8476 ****
2848 Hw         20.640000   30.600000   14.390000  H         1 MOL        0.4238 ****
2849 Hw         19.930000   29.150000   14.600000  H         1 MOL        0.4238 ****
2850 Ow          3.630000   17.870000    8.360000  O         1 MOL       -0.8476 ****
2851 Hw          4.130000   17.010000    8.420000  H         1 MOL        0.4238 ****
2852 Hw          4.280000   18.640000    8.330000  H         1 MOL        0.4238 ****
2853 Ow         10.510000   10.840000    6.790000  O         1 MOL       -0.8476 ****
2854 Hw          9.810000   10.370000    7.330000  H         1 MOL        0.4238 ****
2855 Hw         11.100000   10.160000    6.360000  H         1 MOL        0.4238 ****
2856 Ow         10.350000    7.520000    9.490000  O         1 MOL       -0.8476 ****
2857 Hw         10.500000    7.730000   10.450000  H         1 MOL        0.4238 ****
2858 Hw         10.050000    6.570000    9.400000  H         1 MOL        0.4238 ****
2859 Ow         19.680000   20.050000    7.030000  O         1 MOL       -0.8476 ****
2860 Hw         18.890000   20.560000    6.690000  H         1 MOL        0.4238 ****
2861 Hw         19.590000   19.900000    8.010000  H         1 MOL        0.4238 ****
2862 Ow         27.190000    2.220000    9.540000  O         1 MOL       -0.8476 ****
2863 Hw         27.110000    1.860000    8.610000  H         1 MOL        0.4238 ****
2864 Hw         27.170000    1.460000   10.190000  H         1 MOL        0.4238 ****
2865 Ow         20.240000    7.960000    9.320000  O         1 MOL       -0.8476 ****
2866 Hw         21.170000    8.320000    9.370000  H         1 MOL        0.4238 ****
2867 Hw         20.180000    7.110000    9.840000  H         1 MOL        0.4238 ****
2868 Ow         26.270000    4.890000    8.820000  O         1 MOL       -0.8476 ****
2869 Hw         26.020000    4.800000    7.860000  H         1 MOL        0.4238 ****
2870 Hw         26.750000    4.070000    9.130000  H         1 MOL        0.4238 ****
2871 Ow          6.970000   26.910000    6.480000  O         1 MOL       -0.8476 ****
2872 Hw          7.660000   26.750000    7.180000  H         1 MOL        0.4238 ****
2873 Hw          6.240000   27.480000    6.860000  H         1 MOL        0.4238 ****
2874 Ow         23.180000   25.210000   14.140000  O         1 MOL       -0.8476 ****
2875 Hw         23.740000   26.020000   13.970000  H         1 MOL        0.4238 ****
2876 Hw         23.770000   24.410000   14.170000  H         1 MOL        0.4238 ****
2877 Ow         14.410000   11.590000    8.500000  O         1 MOL       -0.8476 ****
2878 Hw         13.860000   10.750000    8.430000  H         1 MOL        0.4238 ****
2879 Hw         14.670000   11.880000    7.580000  H         1 MOL        0.4238 ****
2880 Ow          2.750000   20.050000    7.030000  O         1 MOL       -0.8476 ****
2881 Hw          1.960000   20.560000    6.690000  H         1 MOL        0.4238 ****
2882 Hw          2.660000   19.900000    8.010000  H         1 MOL        0.4238 ****
2883 Ow         17.420000   26.130000   15.000000  O         1 MOL       -0.8476 ****
2884 Hw         17.800000   27.040000   15.150000  H         1 MOL        0.4238 ****
2885 Hw         17.340000   25.960000   14.010000  H         1 MOL        0.4238 ****
2886 Ow         24.730000   11.300000   10.060000  O         1 MOL       -0.8476 ****
2887 Hw         23.950000   11.470000   10.660000  H         1 MOL        0.4238 ****
2888 Hw         25.070000   12.170000    9.700000  H         1 MOL        0.4238 ****
2889 Ow         14.520000    8.420000   13.810000  O         1 MOL       -0.8476 ****
2890 Hw         13.950000    8.940000   13.180000  H         1 MOL        0.4238 ****
2891 Hw         15.480000    8.540000   13.570000  H         1 MOL        0.4238 ****
2892 Ow          3.190000   17.420000    6.010000  O         1 MOL       -0.8476 ****
2893 Hw          3.080000   18.360000    6.340000  H         1 MOL        0.4238 ****
2894 Hw          3.140000   16.790000    6.780000  H         1 MOL        0.4238 ****
2895 Ow         27.280000   24.450000    9.490000  O         1 MOL       -0.8476 ****
2896 Hw         27.430000   24.660000   10.450000  H         1 MOL        0.4238 ****
2897 Hw         26.980000   23.500000    9.400000  H         1 MOL        0.4238 ****
2898 Ow          2.610000   34.640000   12.240000  O         1 MOL       -0.8476 ****
2899 Hw          3.180000   33.990000   12.740000  H         1 MOL        0.4238 ****
2900 Hw          2.450000   34.310000   11.310000  H         1 MOL        0.4238 ****
2901 Ow         20.440000    4.950000    9.890000  O         1 MOL       -0.8476 ****
2902 Hw         19.920000    4.120000    9.720000  H         1 MOL        0.4238 ****
2903 Hw         21.210000    5.000000    9.250000  H         1 MOL        0.4238 ****
2904 Ow         22.550000   18.750000    8.680000  O         1 MOL       -0.8476 ****
2905 Hw         22.500000   18.700000    9.680000  H         1 MOL        0.4238 ****
2906 Hw         22.570000   19.710000    8.390000  H         1 MOL        0.4238 ****
2907 Ow         19.070000    2.710000   14.810000  O         1 MOL       -0.8476 ****
2908 Hw         18.270000    3.310000   14.680000  H         1 MOL        0.4238 ****
2909 Hw         18.970000    2.220000   15.670000  H         1 MOL        0.4238 ****
2910 Ow         17.810000    7.970000    7.720000  O         1 MOL       -0.8476 ****
2911 Hw         18.800000    7.850000    7.810000  H         1 MOL        0.4238 ****
2912 Hw         17.570000    8.920000    7.930000  H         1 MOL        0.4238 ****
2913 Ow          9.270000   34.600000   13.850000  O         1 MOL       -0.8476 ****
2914 Hw          9.520000   34.400000   12.900000  H         1 MOL        0.4238 ****
2915 Hw          9.990000   35.160000   14.270000  H         1 MOL        0.4238 ****
2916 Ow         27.810000   23.620000   14.470000  O         1 MOL       -0.8476 ****
2917 Hw         27.010000   23.010000   14.500000  H         1 MOL        0.4238 ****
2918 Hw         28.620000   23.090000   14.230000  H         1 MOL        0.4238 ****
2919 Ow         10.290000   34.100000    7.360000  O         1 MOL       -0.8476 ****
2920 Hw          9.570000   34.150000    6.670000  H         1 MOL        0.4238 ****
2921 Hw         10.050000   33.410000    8.050000  H         1 MOL        0.4238 ****
2922 Ow         23.230000   32.460000   12.670000  O         1 MOL       -0.8476 ****
2923 Hw         23.180000   33.280000   13.240000  H         1 MOL        0.4238 ****
2924 Hw         24.120000   32.430000   12.220000  H         1 MOL        0.4238 ****
2925 Ow         17.240000   20.470000    6.300000  O         1 MOL       -0.8476 ****
2926 Hw         16.420000   20.900000    6.690000  H         1 MOL        0.4238 ****
2927 Hw         16.960000   19.740000    5.670000  H         1 MOL        0.4238 ****
2928 Ow         19.300000   19.540000    9.790000  O         1 MOL       -0.8476 ****
2929 Hw         19.650000   19.370000   10.710000  H         1 MOL        0.4238 ****
2930 Hw         18.420000   19.090000    9.670000  H         1 MOL        0.4238 ****
2931 Ow         23.770000    1.890000   14.720000  O         1 MOL       -0.8476 ****
2932 Hw         24.670000    1.730000   14.320000  H         1 MOL        0.4238 ****
2933 Hw         23.850000    1.940000   15.710000  H         1 MOL        0.4238 ****
2934 Ow         28.650000    1.930000   14.600000  O         1 MOL       -0.8476 ****
2935 Hw         28.650000    2.570000   15.370000  H         1 MOL        0.4238 ****
2936 Hw         28.930000    2.410000   13.770000  H         1 MOL        0.4238 ****
2937 Ow          6.060000   24.240000    6.350000  O         1 MOL       -0.8476 ****
2938 Hw          6.560000   25.090000    6.160000  H         1 MOL        0.4238 ****
2939 Hw          5.180000   24.260000    5.870000  H         1 MOL        0.4238 ****
2940 Ow          1.710000   11.230000   14.490000  O         1 MOL       -0.8476 ****
2941 Hw          1.930000   10.620000   15.250000  H         1 MOL        0.4238 ****
2942 Hw          1.810000   10.740000   13.630000  H         1 MOL        0.4238 ****
2943 Ow         13.120000    4.390000    6.740000  O         1 MOL       -0.8476 ****
2944 Hw         12.530000    5.190000    6.780000  H         1 MOL        0.4238 ****
2945 Hw         13.270000    4.040000    7.670000  H         1 MOL        0.4238 ****
2946 Ow         13.590000   10.450000   12.170000  O         1 MOL       -0.8476 ****
2947 Hw         13.830000    9.820000   11.430000  H         1 MOL        0.4238 ****
2948 Hw         12.690000   10.850000   11.990000  H         1 MOL        0.4238 ****
2949 Ow         24.370000   23.130000   10.470000  O         1 MOL       -0.8476 ****
2950 Hw         24.960000   22.870000    9.710000  H         1 MOL        0.4238 ****
2951 Hw         24.090000   24.090000   10.360000  H         1 MOL        0.4238 ****
2952 Ow         27.440000   27.770000    6.790000  O         1 MOL       -0.8476 ****
2953 Hw         26.740000   27.300000    7.330000  H         1 MOL        0.4238 ****
2954 Hw         28.030000   27.090000    6.360000  H         1 MOL        0.4238 ****
2955 Ow         17.810000   24.900000    7.720000  O         1 MOL       -0.8476 ****
2956 Hw         18.800000   24.780000    7.810000  H         1 MOL        0.4238 ****
2957 Hw         17.570000   25.850000    7.930000  H         1 MOL        0.4238 ****
2958 Ow         30.520000   10.450000   12.170000  O         1 MOL       -0.8476 ****
2959 Hw         30.760000    9.820000   11.430000  H         1 MOL        0.4238 ****
2960 Hw         29.620000   10.850000   11.990000  H         1 MOL        0.4238 ****
2961 Ow         20.400000   31.140000   10.440000  O         1 MOL       -0.8476 ****
2962 Hw         19.620000   30.830000    9.910000  H         1 MOL        0.4238 ****
2963 Hw         20.980000   31.720000    9.870000  H         1 MOL        0.4238 ****
2964 Ow         20.590000   31.890000   13.120000  O         1 MOL       -0.8476 ****
2965 Hw         20.380000   31.450000   12.250000  H         1 MOL        0.4238 ****
2966 Hw         21.560000   32.150000   13.150000  H         1 MOL        0.4238 ****
2967 Ow          0.760000   15.500000   13.140000  O         1 MOL       -0.8476 ****
2968 Hw          0.300000   16.320000   12.800000  H         1 MOL        0.4238 ****
2969 Hw          1.740000   15.690000   13.230000  H         1 MOL        0.4238 ****
2970 Ow         16.860000   25.620000   12.370000  O         1 MOL       -0.8476 ****
2971 Hw         16.590000   24.730000   12.000000  H         1 MOL        0.4238 ****
2972 Hw         16.870000   26.300000   11.640000  H         1 MOL        0.4238 ****
2973 Ow         10.030000   20.890000   12.250000  O         1 MOL       -0.8476 ****
2974 Hw          9.260000   21.230000   12.790000  H         1 MOL        0.4238 ****
2975 Hw          9.690000   20.380000   11.460000  H         1 MOL        0.4238 ****
2976 Ow          2.750000    3.120000    7.030000  O         1 MOL       -0.8476 ****
2977 Hw          1.960000    3.630000    6.690000  H         1 MOL        0.4238 ****
2978 Hw          2.660000    2.970000    8.010000  H         1 MOL        0.4238 ****
2979 Ow          2.140000    2.710000   14.810000  O         1 MOL       -0.8476 ****
2980 Hw          1.340000    3.310000   14.680000  H         1 MOL        0.4238 ****
2981 Hw          2.040000    2.220000   15.670000  H         1 MOL        0.4238 ****
2982 Ow         18.530000   18.540000    9.460000  O         1 MOL       -0.8476 ****
2983 Hw         18.920000   17.690000    9.100000  H         1 MOL        0.4238 ****
2984 Hw         17.550000   18.560000    9.270000  H         1 MOL        0.4238 ****
2985 Ow          8.710000   26.350000    8.440000  O         1 MOL       -0.8476 ****
2986 Hw          9.250000   25.660000    8.920000  H         1 MOL        0.4238 ****
2987 Hw          8.390000   27.040000    9.100000  H         1 MOL        0.4238 ****
2988 Ow          5.620000   18.750000    8.680000  O         1 MOL       -0.8476 ****
2989 Hw          5.570000   18.700000    9.680000  H         1 MOL        0.4238 ****
2990 Hw          5.640000   19.710000    8.390000  H         1 MOL        0.4238 ****
2991 Ow         13.050000   29.070000   14.060000  O         1 MOL       -0.8476 ****
2992 Hw         13.420000   28.340000   13.480000  H         1 MOL        0.4238 ****
2993 Hw         13.570000   29.120000   14.910000  H         1 MOL        0.4238 ****
2994 Ow          6.840000   35.740000   14.720000  O         1 MOL       -0.8476 ****
2995 Hw          7.740000   35.580000   14.320000  H         1 MOL        0.4238 ****
2996 Hw          6.920000   35.790000   15.710000  H         1 MOL        0.4238 ****
2997 Ow         18.180000    7.230000   15.800000  O         1 MOL       -0.8476 ****
2998 Hw         19.060000    7.100000   16.250000  H         1 MOL        0.4238 ****
2999 Hw         18.050000    8.200000   15.580000  H         1 MOL        0.4238 ****
3000 Ow         17.710000   17.330000   11.370000  O         1 MOL       -0.8476 ****
3001 Hw         18.320000   17.630000   10.640000  H         1 MOL        0.4238 ****
3002 Hw         17.330000   16.440000   11.150000  H         1 MOL        0.4238 ****
3003 Ow          6.840000    1.890000   14.720000  O         1 MOL       -0.8476 ****
3004 Hw          7.740000    1.730000   14.320000  H         1 MOL        0.4238 ****
3005 Hw          6.920000    1.940000   15.710000  H         1 MOL        0.4238 ****
3006 Ow         16.050000    2.070000    8.650000  O         1 MOL       -0.8476 ****
3007 Hw         15.210000    2.060000    9.190000  H         1 MOL        0.4238 ****
3008 Hw         16.070000    2.900000    8.090000  H         1 MOL        0.4238 ****
3009 Ow         14.700000    7.210000    7.110000  O         1 MOL       -0.8476 ****
3010 Hw         14.650000    6.560000    7.860000  H         1 MOL        0.4238 ****
3011 Hw         15.500000    7.800000    7.240000  H         1 MOL        0.4238 ****
3012 Ow         14.720000   31.840000   13.220000  O         1 MOL       -0.8476 ****
3013 Hw         14.960000   32.780000   13.480000  H         1 MOL        0.4238 ****
3014 Hw         14.560000   31.300000   14.040000  H         1 MOL        0.4238 ****
3015 Ow         23.250000   34.650000   14.220000  O         1 MOL       -0.8476 ****
3016 Hw         22.330000   34.480000   14.570000  H         1 MOL        0.4238 ****
3017 Hw         23.530000   35.570000   14.480000  H         1 MOL        0.4238 ****
3018 Ow         21.430000    3.780000   14.820000  O         1 MOL       -0.8476 ****
3019 Hw         22.250000    3.220000   14.910000  H         1 MOL        0.4238 ****
3020 Hw         20.620000    3.200000   14.860000  H         1 MOL        0.4238 ****
3021 Ow         20.240000   24.890000    9.320000  O         1 MOL       -0.8476 ****
3022 Hw         21.170000   25.250000    9.370000  H         1 MOL        0.4238 ****
3023 Hw         20.180000   24.040000    9.840000  H         1 MOL        0.4238 ****
3024 Ow         12.390000   15.560000    7.760000  O         1 MOL       -0.8476 ****
3025 Hw         12.600000   16.300000    7.110000  H         1 MOL        0.4238 ****
3026 Hw         13.070000   15.560000    8.490000  H         1 MOL        0.4238 ****
3027 Ow          2.090000   26.550000   12.470000  O         1 MOL       -0.8476 ****
3028 Hw          2.980000   26.100000   12.330000  H         1 MOL        0.4238 ****
3029 Hw          1.360000   25.900000   12.280000  H         1 MOL        0.4238 ****
3030 Ow         23.180000    8.280000   14.140000  O         1 MOL       -0.8476 ****
3031 Hw         23.740000    9.090000   13.970000  H         1 MOL        0.4238 ****
3032 Hw         23.770000    7.480000   14.170000  H         1 MOL        0.4238 ****
3033 Ow         11.470000    6.890000   27.790000  O         1 MOL       -0.8476 ****
3034 Hw         12.040000    7.670000   27.540000  H         1 MOL        0.4238 ****
3035 Hw         10.870000    7.150000   28.550000  H         1 MOL        0.4238 ****
3036 Ow          3.660000   14.960000   33.910000  O         1 MOL       -0.8476 ****
3037 Hw          3.450000   14.520000   33.040000  H         1 MOL        0.4238 ****
3038 Hw          4.630000   15.220000   33.940000  H         1 MOL        0.4238 ****
3039 Ow         29.770000   14.310000   32.040000  O         1 MOL       -0.8476 ****
3040 Hw         30.240000   14.440000   32.910000  H         1 MOL        0.4238 ****
3041 Hw         29.110000   13.570000   32.130000  H         1 MOL        0.4238 ****
3042 Ow         26.780000    8.760000   36.340000  O         1 MOL       -0.8476 ****
3043 Hw         27.240000    7.920000   36.050000  H         1 MOL        0.4238 ****
3044 Hw         26.220000    9.100000   35.590000  H         1 MOL        0.4238 ****
3045 Ow         17.010000   26.010000   26.740000  O         1 MOL       -0.8476 ****
3046 Hw         17.960000   25.720000   26.820000  H         1 MOL        0.4238 ****
3047 Hw         16.930000   26.660000   25.990000  H         1 MOL        0.4238 ****
3048 Ow         24.370000   23.130000   31.260000  O         1 MOL       -0.8476 ****
3049 Hw         24.960000   22.870000   30.500000  H         1 MOL        0.4238 ****
3050 Hw         24.090000   24.090000   31.150000  H         1 MOL        0.4238 ****
3051 Ow         30.650000    8.480000   31.070000  O         1 MOL       -0.8476 ****
3052 Hw         29.900000    8.480000   30.410000  H         1 MOL        0.4238 ****
3053 Hw         31.020000    7.560000   31.160000  H         1 MOL        0.4238 ****
3054 Ow         20.440000   21.880000   30.680000  O         1 MOL       -0.8476 ****
3055 Hw         19.920000   21.050000   30.510000  H         1 MOL        0.4238 ****
3056 Hw         21.210000   21.930000   30.040000  H         1 MOL        0.4238 ****
3057 Ow         29.790000    3.720000   33.240000  O         1 MOL       -0.8476 ****
3058 Hw         30.000000    4.460000   33.880000  H         1 MOL        0.4238 ****
3059 Hw         28.900000    3.890000   32.810000  H         1 MOL        0.4238 ****
3060 Ow         23.230000   32.460000   33.460000  O         1 MOL       -0.8476 ****
3061 Hw         23.180000   33.280000   34.030000  H         1 MOL        0.4238 ****
3062 Hw         24.120000   32.430000   33.010000  H         1 MOL        0.4238 ****
3063 Ow         10.800000   13.190000   29.110000  O         1 MOL       -0.8476 ****
3064 Hw         10.870000   12.350000   28.560000  H         1 MOL        0.4238 ****
3065 Hw         11.420000   13.880000   28.750000  H         1 MOL        0.4238 ****
3066 Ow          5.730000   19.010000   32.090000  O         1 MOL       -0.8476 ****
3067 Hw          6.110000   18.170000   32.460000  H         1 MOL        0.4238 ****
3068 Hw          4.850000   19.200000   32.530000  H         1 MOL        0.4238 ****
3069 Ow         14.780000   22.690000   30.540000  O         1 MOL       -0.8476 ****
3070 Hw         14.480000   21.740000   30.610000  H         1 MOL        0.4238 ****
3071 Hw         15.510000   22.850000   31.200000  H         1 MOL        0.4238 ****
3072 Ow         20.770000   12.740000   35.520000  O         1 MOL       -0.8476 ****
3073 Hw         20.640000   13.670000   35.180000  H         1 MOL        0.4238 ****
3074 Hw         19.930000   12.220000   35.390000  H         1 MOL        0.4238 ****
3075 Ow         27.730000   13.190000   29.110000  O         1 MOL       -0.8476 ****
3076 Hw         27.800000   12.350000   28.560000  H         1 MOL        0.4238 ****
3077 Hw         28.350000   13.880000   28.750000  H         1 MOL        0.4238 ****
3078 Ow         12.390000   15.560000   28.550000  O         1 MOL       -0.8476 ****
3079 Hw         12.600000   16.300000   27.900000  H         1 MOL        0.4238 ****
3080 Hw         13.070000   15.560000   29.280000  H         1 MOL        0.4238 ****
3081 Ow         17.450000    5.300000   31.760000  O         1 MOL       -0.8476 ****
3082 Hw         18.300000    4.970000   31.350000  H         1 MOL        0.4238 ****
3083 Hw         17.580000    5.450000   32.740000  H         1 MOL        0.4238 ****
3084 Ow         25.080000   13.880000   29.860000  O         1 MOL       -0.8476 ****
3085 Hw         25.980000   14.020000   29.440000  H         1 MOL        0.4238 ****
3086 Hw         24.370000   13.900000   29.150000  H         1 MOL        0.4238 ****
3087 Ow         23.250000   17.720000   35.010000  O         1 MOL       -0.8476 ****
3088 Hw         22.330000   17.550000   35.360000  H         1 MOL        0.4238 ****
3089 Hw         23.530000   18.640000   35.270000  H         1 MOL        0.4238 ****
3090 Ow         27.060000   35.750000   32.160000  O         1 MOL       -0.8476 ****
3091 Hw         26.430000   35.030000   31.850000  H         1 MOL        0.4238 ****
3092 Hw         27.990000   35.390000   32.160000  H         1 MOL        0.4238 ****
3093 Ow         20.220000    5.330000   33.420000  O         1 MOL       -0.8476 ****
3094 Hw         20.600000    4.740000   34.140000  H         1 MOL        0.4238 ****
3095 Hw         20.620000    5.070000   32.540000  H         1 MOL        0.4238 ****
3096 Ow          9.420000   33.570000   35.270000  O         1 MOL       -0.8476 ****
3097 Hw          9.180000   33.390000   34.320000  H         1 MOL        0.4238 ****
3098 Hw          9.720000   34.510000   35.370000  H         1 MOL        0.4238 ****
3099 Ow         17.450000   22.230000   31.760000  O         1 MOL       -0.8476 ****
3100 Hw         18.300000   21.900000   31.350000  H         1 MOL        0.4238 ****
3101 Hw         17.580000   22.380000   32.740000  H         1 MOL        0.4238 ****
3102 Ow          6.840000    1.890000   35.510000  O         1 MOL       -0.8476 ****
3103 Hw          7.740000    1.730000   35.110000  H         1 MOL        0.4238 ****
3104 Hw          6.920000    1.940000   36.500000  H         1 MOL        0.4238 ****
3105 Ow         10.760000   13.330000   34.020000  O         1 MOL       -0.8476 ****
3106 Hw          9.960000   13.100000   34.570000  H         1 MOL        0.4238 ****
3107 Hw         11.590000   13.070000   34.510000  H         1 MOL        0.4238 ****
3108 Ow         27.440000   10.840000   27.580000  O         1 MOL       -0.8476 ****
3109 Hw         26.740000   10.370000   28.120000  H         1 MOL        0.4238 ****
3110 Hw         28.030000   10.160000   27.150000  H         1 MOL        0.4238 ****
3111 Ow          3.510000   21.880000   30.680000  O         1 MOL       -0.8476 ****
3112 Hw          2.990000   21.050000   30.510000  H         1 MOL        0.4238 ****
3113 Hw          4.280000   21.930000   30.040000  H         1 MOL        0.4238 ****
3114 Ow          6.060000    7.310000   27.140000  O         1 MOL       -0.8476 ****
3115 Hw          6.560000    8.160000   26.950000  H         1 MOL        0.4238 ****
3116 Hw          5.180000    7.330000   26.660000  H         1 MOL        0.4238 ****
3117 Ow         20.400000   31.140000   31.230000  O         1 MOL       -0.8476 ****
3118 Hw         19.620000   30.830000   30.700000  H         1 MOL        0.4238 ****
3119 Hw         20.980000   31.720000   30.660000  H         1 MOL        0.4238 ****
3120 Ow          4.500000   20.710000   35.610000  O         1 MOL       -0.8476 ****
3121 Hw          5.320000   20.150000   35.700000  H         1 MOL        0.4238 ****
3122 Hw          3.690000   20.130000   35.650000  H         1 MOL        0.4238 ****
3123 Ow         20.950000   17.270000   36.220000  O         1 MOL       -0.8476 ****
3124 Hw         20.040000   17.680000   36.200000  H         1 MOL        0.4238 ****
3125 Hw         20.880000   16.330000   36.540000  H         1 MOL        0.4238 ****
3126 Ow         17.170000   14.730000   31.660000  O         1 MOL       -0.8476 ****
3127 Hw         16.240000   14.480000   31.390000  H         1 MOL        0.4238 ****
3128 Hw         17.430000   14.230000   32.480000  H         1 MOL        0.4238 ****
3129 Ow          8.240000   15.720000   27.490000  O         1 MOL       -0.8476 ****
3130 Hw          8.560000   15.820000   26.550000  H         1 MOL        0.4238 ****
3131 Hw          7.450000   15.100000   27.510000  H         1 MOL        0.4238 ****
3132 Ow         17.930000   34.800000   29.890000  O         1 MOL       -0.8476 ****
3133 Hw         17.510000   33.940000   29.620000  H         1 MOL        0.4238 ****
3134 Hw         18.870000   34.830000   29.550000  H         1 MOL        0.4238 ****
3135 Ow         23.180000   25.210000   34.930000  O         1 MOL       -0.8476 ****
3136 Hw         23.740000   26.020000   34.760000  H         1 MOL        0.4238 ****
3137 Hw         23.770000   24.410000   34.960000  H         1 MOL        0.4238 ****
3138 Ow          3.190000   17.420000   26.800000  O         1 MOL       -0.8476 ****
3139 Hw          3.080000   18.360000   27.130000  H         1 MOL        0.4238 ****
3140 Hw          3.140000   16.790000   27.570000  H         1 MOL        0.4238 ****
3141 Ow         12.390000   32.290000   35.680000  O         1 MOL       -0.8476 ****
3142 Hw         12.450000   31.520000   36.320000  H         1 MOL        0.4238 ****
3143 Hw         11.870000   32.030000   34.880000  H         1 MOL        0.4238 ****
3144 Ow         16.860000    8.690000   33.160000  O         1 MOL       -0.8476 ****
3145 Hw         16.590000    7.800000   32.790000  H         1 MOL        0.4238 ****
3146 Hw         16.870000    9.370000   32.430000  H         1 MOL        0.4238 ****
3147 Ow         10.030000   20.890000   33.040000  O         1 MOL       -0.8476 ****
3148 Hw          9.260000   21.230000   33.580000  H         1 MOL        0.4238 ****
3149 Hw          9.690000   20.380000   32.250000  H         1 MOL        0.4238 ****
3150 Ow         16.150000   21.260000   27.990000  O         1 MOL       -0.8476 ****
3151 Hw         15.410000   21.720000   27.490000  H         1 MOL        0.4238 ****
3152 Hw         16.660000   21.940000   28.520000  H         1 MOL        0.4238 ****
3153 Ow         26.350000   33.570000   35.270000  O         1 MOL       -0.8476 ****
3154 Hw         26.110000   33.390000   34.320000  H         1 MOL        0.4238 ****
3155 Hw         26.650000   34.510000   35.370000  H         1 MOL        0.4238 ****
3156 Ow          9.270000    0.750000   34.640000  O         1 MOL       -0.8476 ****
3157 Hw          9.520000    0.550000   33.690000  H         1 MOL        0.4238 ****
3158 Hw          9.990000    1.310000   35.060000  H         1 MOL        0.4238 ****
3159 Ow          1.340000    6.290000   26.250000  O         1 MOL       -0.8476 ****
3160 Hw          0.890000    5.410000   26.420000  H         1 MOL        0.4238 ****
3161 Hw          1.330000    6.830000   27.090000  H         1 MOL        0.4238 ****
3162 Ow          6.840000   18.820000   35.510000  O         1 MOL       -0.8476 ****
3163 Hw          7.740000   18.660000   35.110000  H         1 MOL        0.4238 ****
3164 Hw          6.920000   18.870000   36.500000  H         1 MOL        0.4238 ****
3165 Ow          1.000000   34.800000   29.890000  O         1 MOL       -0.8476 ****
3166 Hw          0.580000   33.940000   29.620000  H         1 MOL        0.4238 ****
3167 Hw          1.940000   34.830000   29.550000  H         1 MOL        0.4238 ****
3168 Ow         27.220000   17.180000   28.150000  O         1 MOL       -0.8476 ****
3169 Hw         26.500000   17.230000   27.460000  H         1 MOL        0.4238 ****
3170 Hw         26.980000   16.490000   28.840000  H         1 MOL        0.4238 ****
3171 Ow          5.730000   35.930000   32.090000  O         1 MOL       -0.8476 ****
3172 Hw          6.110000   35.090000   32.460000  H         1 MOL        0.4238 ****
3173 Hw          4.850000   36.120000   32.530000  H         1 MOL        0.4238 ****
3174 Ow         27.690000   30.260000   34.020000  O         1 MOL       -0.8476 ****
3175 Hw         26.890000   30.030000   34.570000  H         1 MOL        0.4238 ****
3176 Hw         28.520000   30.000000   34.510000  H         1 MOL        0.4238 ****
3177 Ow          8.150000   13.880000   29.860000  O         1 MOL       -0.8476 ****
3178 Hw          9.050000   14.020000   29.440000  H         1 MOL        0.4238 ****
3179 Hw          7.440000   13.900000   29.150000  H         1 MOL        0.4238 ****
3180 Ow         16.050000   19.000000   29.440000  O         1 MOL       -0.8476 ****
3181 Hw         15.210000   18.990000   29.980000  H         1 MOL        0.4238 ****
3182 Hw         16.070000   19.830000   28.880000  H         1 MOL        0.4238 ****
3183 Ow         14.360000    2.000000   31.740000  O         1 MOL       -0.8476 ****
3184 Hw         14.880000    1.350000   32.290000  H         1 MOL        0.4238 ****
3185 Hw         13.870000    2.630000   32.350000  H         1 MOL        0.4238 ****
3186 Ow         21.640000   11.380000   28.030000  O         1 MOL       -0.8476 ****
3187 Hw         20.930000   11.110000   28.680000  H         1 MOL        0.4238 ****
3188 Hw         21.380000   11.100000   27.100000  H         1 MOL        0.4238 ****
3189 Ow         12.640000   34.100000   31.900000  O         1 MOL       -0.8476 ****
3190 Hw         13.480000   34.150000   31.360000  H         1 MOL        0.4238 ****
3191 Hw         12.410000   33.140000   32.080000  H         1 MOL        0.4238 ****
3192 Ow         27.190000   36.070000   30.330000  O         1 MOL       -0.8476 ****
3193 Hw         27.110000   35.710000   29.400000  H         1 MOL        0.4238 ****
3194 Hw         27.170000   35.310000   30.980000  H         1 MOL        0.4238 ****
3195 Ow          5.780000   22.160000   29.270000  O         1 MOL       -0.8476 ****
3196 Hw          5.900000   22.820000   28.530000  H         1 MOL        0.4238 ****
3197 Hw          6.240000   22.500000   30.100000  H         1 MOL        0.4238 ****
3198 Ow         29.760000   34.760000   26.530000  O         1 MOL       -0.8476 ****
3199 Hw         30.200000   35.400000   25.890000  H         1 MOL        0.4238 ****
3200 Hw         29.260000   35.280000   27.230000  H         1 MOL        0.4238 ****
3201 Ow         27.060000   18.820000   32.160000  O         1 MOL       -0.8476 ****
3202 Hw         26.430000   18.100000   31.850000  H         1 MOL        0.4238 ****
3203 Hw         27.990000   18.460000   32.160000  H         1 MOL        0.4238 ****
3204 Ow         16.860000   25.620000   33.160000  O         1 MOL       -0.8476 ****
3205 Hw         16.590000   24.730000   32.790000  H         1 MOL        0.4238 ****
3206 Hw         16.870000   26.300000   32.430000  H         1 MOL        0.4238 ****
3207 Ow         28.160000   28.740000   31.620000  O         1 MOL       -0.8476 ****
3208 Hw         27.760000   29.180000   32.430000  H         1 MOL        0.4238 ****
3209 Hw         27.750000   29.110000   30.790000  H         1 MOL        0.4238 ****
3210 Ow         23.900000   26.910000   27.270000  O         1 MOL       -0.8476 ****
3211 Hw         24.590000   26.750000   27.970000  H         1 MOL        0.4238 ****
3212 Hw         23.170000   27.480000   27.650000  H         1 MOL        0.4238 ****
3213 Ow         29.850000    9.130000   27.340000  O         1 MOL       -0.8476 ****
3214 Hw         30.450000    8.320000   27.360000  H         1 MOL        0.4238 ****
3215 Hw         30.250000    9.820000   26.740000  H         1 MOL        0.4238 ****
3216 Ow          2.370000    2.610000   30.580000  O         1 MOL       -0.8476 ****
3217 Hw          2.720000    2.440000   31.500000  H         1 MOL        0.4238 ****
3218 Hw          1.490000    2.160000   30.460000  H         1 MOL        0.4238 ****
3219 Ow         17.830000   22.350000   34.480000  O         1 MOL       -0.8476 ****
3220 Hw         18.750000   22.340000   34.070000  H         1 MOL        0.4238 ****
3221 Hw         17.770000   23.090000   35.150000  H         1 MOL        0.4238 ****
3222 Ow         19.350000   31.130000   26.000000  O         1 MOL       -0.8476 ****
3223 Hw         19.090000   32.090000   26.000000  H         1 MOL        0.4238 ****
3224 Hw         18.640000   30.590000   26.450000  H         1 MOL        0.4238 ****
3225 Ow         14.780000   30.960000   30.150000  O         1 MOL       -0.8476 ****
3226 Hw         14.190000   31.020000   30.950000  H         1 MOL        0.4238 ****
3227 Hw         14.630000   30.080000   29.690000  H         1 MOL        0.4238 ****
3228 Ow          0.490000   29.890000   33.440000  O         1 MOL       -0.8476 ****
3229 Hw          1.020000   29.400000   34.120000  H         1 MOL        0.4238 ****
3230 Hw          0.710000   30.870000   33.490000  H         1 MOL        0.4238 ****
3231 Ow         17.810000    7.970000   28.510000  O         1 MOL       -0.8476 ****
3232 Hw         18.800000    7.850000   28.600000  H         1 MOL        0.4238 ****
3233 Hw         17.570000    8.920000   28.720000  H         1 MOL        0.4238 ****
3234 Ow         22.990000    7.310000   27.140000  O         1 MOL       -0.8476 ****
3235 Hw         23.490000    8.160000   26.950000  H         1 MOL        0.4238 ****
3236 Hw         22.110000    7.330000   26.660000  H         1 MOL        0.4238 ****
3237 Ow         17.830000    5.420000   34.480000  O         1 MOL       -0.8476 ****
3238 Hw         18.750000    5.410000   34.070000  H         1 MOL        0.4238 ****
3239 Hw         17.770000    6.160000   35.150000  H         1 MOL        0.4238 ****
3240 Ow         27.440000   27.770000   27.580000  O         1 MOL       -0.8476 ****
3241 Hw         26.740000   27.300000   28.120000  H         1 MOL        0.4238 ****
3242 Hw         28.030000   27.090000   27.150000  H         1 MOL        0.4238 ****
3243 Ow          6.250000   25.210000   34.930000  O         1 MOL       -0.8476 ****
3244 Hw          6.810000   26.020000   34.760000  H         1 MOL        0.4238 ****
3245 Hw          6.840000   24.410000   34.960000  H         1 MOL        0.4238 ****
3246 Ow          9.850000    8.760000   36.340000  O         1 MOL       -0.8476 ****
3247 Hw         10.310000    7.920000   36.050000  H         1 MOL        0.4238 ****
3248 Hw          9.290000    9.100000   35.590000  H         1 MOL        0.4238 ****
3249 Ow         10.350000   24.450000   30.280000  O         1 MOL       -0.8476 ****
3250 Hw         10.500000   24.660000   31.240000  H         1 MOL        0.4238 ****
3251 Hw         10.050000   23.500000   30.190000  H         1 MOL        0.4238 ****
3252 Ow          9.340000    4.890000   29.610000  O         1 MOL       -0.8476 ****
3253 Hw          9.090000    4.800000   28.650000  H         1 MOL        0.4238 ****
3254 Hw          9.820000    4.070000   29.920000  H         1 MOL        0.4238 ****
3255 Ow         10.350000    7.520000   30.280000  O         1 MOL       -0.8476 ****
3256 Hw         10.500000    7.730000   31.240000  H         1 MOL        0.4238 ****
3257 Hw         10.050000    6.570000   30.190000  H         1 MOL        0.4238 ****
3258 Ow         12.390000   32.490000   28.550000  O         1 MOL       -0.8476 ****
3259 Hw         12.600000   33.230000   27.900000  H         1 MOL        0.4238 ****
3260 Hw         13.070000   32.490000   29.280000  H         1 MOL        0.4238 ****
3261 Ow          8.780000   21.330000   27.040000  O         1 MOL       -0.8476 ****
3262 Hw          8.460000   22.050000   26.420000  H         1 MOL        0.4238 ****
3263 Hw          9.020000   20.520000   26.510000  H         1 MOL        0.4238 ****
3264 Ow         14.410000   11.590000   29.290000  O         1 MOL       -0.8476 ****
3265 Hw         13.860000   10.750000   29.220000  H         1 MOL        0.4238 ****
3266 Hw         14.670000   11.880000   28.370000  H         1 MOL        0.4238 ****
3267 Ow          6.830000   21.430000   33.310000  O         1 MOL       -0.8476 ****
3268 Hw          6.490000   20.540000   33.010000  H         1 MOL        0.4238 ****
3269 Hw          7.090000   21.970000   32.510000  H         1 MOL        0.4238 ****
3270 Ow         17.420000   12.960000   33.440000  O         1 MOL       -0.8476 ****
3271 Hw         17.950000   12.470000   34.120000  H         1 MOL        0.4238 ****
3272 Hw         17.640000   13.940000   33.490000  H         1 MOL        0.4238 ****
3273 Ow          9.420000   16.640000   35.270000  O         1 MOL       -0.8476 ****
3274 Hw          9.180000   16.460000   34.320000  H         1 MOL        0.4238 ****
3275 Hw          9.720000   17.580000   35.370000  H         1 MOL        0.4238 ****
3276 Ow          2.610000   34.640000   33.030000  O         1 MOL       -0.8476 ****
3277 Hw          3.180000   33.990000   33.530000  H         1 MOL        0.4238 ****
3278 Hw          2.450000   34.310000   32.100000  H         1 MOL        0.4238 ****
3279 Ow         23.660000   17.760000   30.150000  O         1 MOL       -0.8476 ****
3280 Hw         23.200000   18.640000   30.020000  H         1 MOL        0.4238 ****
3281 Hw         24.650000   17.880000   30.080000  H         1 MOL        0.4238 ****
3282 Ow         22.710000    5.230000   29.270000  O         1 MOL       -0.8476 ****
3283 Hw         22.830000    5.890000   28.530000  H         1 MOL        0.4238 ****
3284 Hw         23.170000    5.570000   30.100000  H         1 MOL        0.4238 ****
3285 Ow         17.420000   29.890000   33.440000  O         1 MOL       -0.8476 ****
3286 Hw         17.950000   29.400000   34.120000  H         1 MOL        0.4238 ****
3287 Hw         17.640000   30.870000   33.490000  H         1 MOL        0.4238 ****
3288 Ow          2.420000   31.130000   26.000000  O         1 MOL       -0.8476 ****
3289 Hw          2.160000   32.090000   26.000000  H         1 MOL        0.4238 ****
3290 Hw          1.710000   30.590000   26.450000  H         1 MOL        0.4238 ****
3291 Ow         29.850000   26.060000   27.340000  O         1 MOL       -0.8476 ****
3292 Hw         30.450000   25.250000   27.360000  H         1 MOL        0.4238 ****
3293 Hw         30.250000   26.750000   26.740000  H         1 MOL        0.4238 ****
3294 Ow         30.050000   21.320000   27.530000  O         1 MOL       -0.8476 ****
3295 Hw         29.460000   22.120000   27.570000  H         1 MOL        0.4238 ****
3296 Hw         30.200000   20.970000   28.460000  H         1 MOL        0.4238 ****
3297 Ow         27.190000   19.150000   30.330000  O         1 MOL       -0.8476 ****
3298 Hw         27.110000   18.790000   29.400000  H         1 MOL        0.4238 ****
3299 Hw         27.170000   18.390000   30.980000  H         1 MOL        0.4238 ****
3300 Ow         20.560000   34.800000   29.150000  O         1 MOL       -0.8476 ****
3301 Hw         21.060000   33.940000   29.210000  H         1 MOL        0.4238 ****
3302 Hw         21.210000   35.570000   29.120000  H         1 MOL        0.4238 ****
3303 Ow          0.950000   29.370000   30.840000  O         1 MOL       -0.8476 ****
3304 Hw          0.900000   29.360000   31.840000  H         1 MOL        0.4238 ****
3305 Hw          0.120000   28.960000   30.460000  H         1 MOL        0.4238 ****
3306 Ow          7.440000   23.130000   31.260000  O         1 MOL       -0.8476 ****
3307 Hw          8.030000   22.870000   30.500000  H         1 MOL        0.4238 ****
3308 Hw          7.160000   24.090000   31.150000  H         1 MOL        0.4238 ****
3309 Ow          2.520000   27.700000   29.480000  O         1 MOL       -0.8476 ****
3310 Hw          2.660000   26.860000   30.000000  H         1 MOL        0.4238 ****
3311 Hw          1.970000   28.340000   30.030000  H         1 MOL        0.4238 ****
3312 Ow         27.730000   30.120000   29.110000  O         1 MOL       -0.8476 ****
3313 Hw         27.800000   29.280000   28.560000  H         1 MOL        0.4238 ****
3314 Hw         28.350000   30.810000   28.750000  H         1 MOL        0.4238 ****
3315 Ow          1.000000   17.870000   29.890000  O         1 MOL       -0.8476 ****
3316 Hw          0.580000   17.010000   29.620000  H         1 MOL        0.4238 ****
3317 Hw          1.940000   17.900000   29.550000  H         1 MOL        0.4238 ****
3318 Ow         26.350000   16.640000   35.270000  O         1 MOL       -0.8476 ****
3319 Hw         26.110000   16.460000   34.320000  H         1 MOL        0.4238 ****
3320 Hw         26.650000   17.580000   35.370000  H         1 MOL        0.4238 ****
3321 Ow         30.050000    4.390000   27.530000  O         1 MOL       -0.8476 ****
3322 Hw         29.460000    5.190000   27.570000  H         1 MOL        0.4238 ****
3323 Hw         30.200000    4.040000   28.460000  H         1 MOL        0.4238 ****
3324 Ow         29.860000    3.310000   30.060000  O         1 MOL       -0.8476 ****
3325 Hw         29.000000    2.810000   29.930000  H         1 MOL        0.4238 ****
3326 Hw         30.480000    2.770000   30.620000  H         1 MOL        0.4238 ****
3327 Ow         21.150000   24.920000   33.130000  O         1 MOL       -0.8476 ****
3328 Hw         22.010000   25.040000   33.630000  H         1 MOL        0.4238 ****
3329 Hw         20.730000   24.050000   33.400000  H         1 MOL        0.4238 ****
3330 Ow          3.290000   22.260000   33.420000  O         1 MOL       -0.8476 ****
3331 Hw          3.670000   21.670000   34.140000  H         1 MOL        0.4238 ****
3332 Hw          3.690000   22.000000   32.540000  H         1 MOL        0.4238 ****
3333 Ow         22.780000   25.490000   30.910000  O         1 MOL       -0.8476 ****
3334 Hw         23.220000   26.380000   30.820000  H         1 MOL        0.4238 ****
3335 Hw         22.150000   25.490000   31.680000  H         1 MOL        0.4238 ****
3336 Ow         26.960000   20.890000   33.040000  O         1 MOL       -0.8476 ****
3337 Hw         26.190000   21.230000   33.580000  H         1 MOL        0.4238 ****
3338 Hw         26.620000   20.380000   32.250000  H         1 MOL        0.4238 ****
3339 Ow         11.720000    1.930000   35.390000  O         1 MOL       -0.8476 ****
3340 Hw         11.720000    2.570000   36.160000  H         1 MOL        0.4238 ****
3341 Hw         12.000000    2.410000   34.560000  H         1 MOL        0.4238 ****
3342 Ow          1.710000   28.160000   35.280000  O         1 MOL       -0.8476 ****
3343 Hw          1.930000   27.550000   36.040000  H         1 MOL        0.4238 ****
3344 Hw          1.810000   27.670000   34.420000  H         1 MOL        0.4238 ****
3345 Ow          0.910000   29.190000   27.150000  O         1 MOL       -0.8476 ****
3346 Hw          0.900000   28.720000   28.030000  H         1 MOL        0.4238 ****
3347 Hw          1.730000   28.910000   26.640000  H         1 MOL        0.4238 ****
3348 Ow         12.640000   30.270000   24.500000  O         1 MOL       -0.8476 ****
3349 Hw         13.140000   31.040000   24.900000  H         1 MOL        0.4238 ****
3350 Hw         11.690000   30.290000   24.820000  H         1 MOL        0.4238 ****
3351 Ow         17.210000   20.640000   34.430000  O         1 MOL       -0.8476 ****
3352 Hw         17.940000   21.330000   34.470000  H         1 MOL        0.4238 ****
3353 Hw         17.490000   19.890000   33.840000  H         1 MOL        0.4238 ****
3354 Ow          6.300000   32.460000   33.460000  O         1 MOL       -0.8476 ****
3355 Hw          6.250000   33.280000   34.030000  H         1 MOL        0.4238 ****
3356 Hw          7.190000   32.430000   33.010000  H         1 MOL        0.4238 ****
3357 Ow         25.350000   29.520000   34.840000  O         1 MOL       -0.8476 ****
3358 Hw         25.300000   29.850000   35.790000  H         1 MOL        0.4238 ****
3359 Hw         24.490000   29.710000   34.380000  H         1 MOL        0.4238 ****
3360 Ow          3.840000   12.740000   35.520000  O         1 MOL       -0.8476 ****
3361 Hw          3.710000   13.670000   35.180000  H         1 MOL        0.4238 ****
3362 Hw          3.000000   12.220000   35.390000  H         1 MOL        0.4238 ****
3363 Ow          5.810000   29.540000   32.270000  O         1 MOL       -0.8476 ****
3364 Hw          4.880000   29.470000   31.900000  H         1 MOL        0.4238 ****
3365 Hw          5.920000   30.430000   32.710000  H         1 MOL        0.4238 ****
3366 Ow          9.270000   17.680000   34.640000  O         1 MOL       -0.8476 ****
3367 Hw          9.520000   17.480000   33.690000  H         1 MOL        0.4238 ****
3368 Hw          9.990000   18.240000   35.060000  H         1 MOL        0.4238 ****
3369 Ow         26.200000   34.600000   34.640000  O         1 MOL       -0.8476 ****
3370 Hw         26.450000   34.400000   33.690000  H         1 MOL        0.4238 ****
3371 Hw         26.920000   35.160000   35.060000  H         1 MOL        0.4238 ****
3372 Ow         20.240000    7.960000   30.110000  O         1 MOL       -0.8476 ****
3373 Hw         21.170000    8.320000   30.160000  H         1 MOL        0.4238 ****
3374 Hw         20.180000    7.110000   30.630000  H         1 MOL        0.4238 ****
3375 Ow         20.120000   17.420000   26.800000  O         1 MOL       -0.8476 ****
3376 Hw         20.010000   18.360000   27.130000  H         1 MOL        0.4238 ****
3377 Hw         20.070000   16.790000   27.570000  H         1 MOL        0.4238 ****
3378 Ow         10.140000    7.820000   33.000000  O         1 MOL       -0.8476 ****
3379 Hw         10.550000    7.500000   33.860000  H         1 MOL        0.4238 ****
3380 Hw          9.180000    7.550000   32.970000  H         1 MOL        0.4238 ****
3381 Ow         20.590000   14.960000   33.910000  O         1 MOL       -0.8476 ****
3382 Hw         20.380000   14.520000   33.040000  H         1 MOL        0.4238 ****
3383 Hw         21.560000   15.220000   33.940000  H         1 MOL        0.4238 ****
3384 Ow         30.560000   22.690000   34.950000  O         1 MOL       -0.8476 ****
3385 Hw         30.840000   22.260000   35.800000  H         1 MOL        0.4238 ****
3386 Hw         30.810000   23.650000   34.960000  H         1 MOL        0.4238 ****
3387 Ow          8.190000    5.910000   35.270000  O         1 MOL       -0.8476 ****
3388 Hw          7.720000    5.880000   36.160000  H         1 MOL        0.4238 ****
3389 Hw          7.680000    5.360000   34.610000  H         1 MOL        0.4238 ****
3390 Ow         27.070000   24.750000   33.000000  O         1 MOL       -0.8476 ****
3391 Hw         27.480000   24.430000   33.860000  H         1 MOL        0.4238 ****
3392 Hw         26.110000   24.480000   32.970000  H         1 MOL        0.4238 ****
3393 Ow          4.020000   34.200000   36.220000  O         1 MOL       -0.8476 ****
3394 Hw          3.110000   34.610000   36.200000  H         1 MOL        0.4238 ****
3395 Hw          3.950000   33.260000   36.540000  H         1 MOL        0.4238 ****
3396 Ow          2.140000   19.640000   35.600000  O         1 MOL       -0.8476 ****
3397 Hw          1.340000   20.240000   35.470000  H         1 MOL        0.4238 ****
3398 Hw          2.040000   19.150000   36.460000  H         1 MOL        0.4238 ****
3399 Ow          8.340000    9.880000   34.340000  O         1 MOL       -0.8476 ****
3400 Hw          8.740000    9.870000   33.420000  H         1 MOL        0.4238 ****
3401 Hw          8.440000   10.800000   34.740000  H         1 MOL        0.4238 ****
3402 Ow         16.620000   33.990000   34.560000  O         1 MOL       -0.8476 ****
3403 Hw         17.150000   34.090000   33.720000  H         1 MOL        0.4238 ****
3404 Hw         16.350000   34.890000   34.900000  H         1 MOL        0.4238 ****
3405 Ow         23.180000   30.440000   27.880000  O         1 MOL       -0.8476 ****
3406 Hw         22.690000   29.570000   27.970000  H         1 MOL        0.4238 ****
3407 Hw         22.950000   30.870000   27.010000  H         1 MOL        0.4238 ****
3408 Ow          9.000000   31.930000   32.570000  O         1 MOL       -0.8476 ****
3409 Hw          8.770000   31.680000   31.630000  H         1 MOL        0.4238 ****
3410 Hw          9.610000   31.240000   32.960000  H         1 MOL        0.4238 ****
3411 Ow         11.990000   34.710000   36.780000  O         1 MOL       -0.8476 ****
3412 Hw         12.230000   35.310000   36.020000  H         1 MOL        0.4238 ****
3413 Hw         12.060000   33.760000   36.480000  H         1 MOL        0.4238 ****
3414 Ow         24.730000   11.300000   30.850000  O         1 MOL       -0.8476 ****
3415 Hw         23.950000   11.470000   31.450000  H         1 MOL        0.4238 ****
3416 Hw         25.070000   12.170000   30.490000  H         1 MOL        0.4238 ****
3417 Ow         14.700000    7.210000   27.900000  O         1 MOL       -0.8476 ****
3418 Hw         14.650000    6.560000   28.650000  H         1 MOL        0.4238 ****
3419 Hw         15.500000    7.800000   28.030000  H         1 MOL        0.4238 ****
3420 Ow         16.260000   12.780000   33.510000  O         1 MOL       -0.8476 ****
3421 Hw         16.860000   12.810000   34.310000  H         1 MOL        0.4238 ****
3422 Hw         15.510000   13.420000   33.640000  H         1 MOL        0.4238 ****
3423 Ow         18.640000   11.230000   35.280000  O         1 MOL       -0.8476 ****
3424 Hw         18.860000   10.620000   36.040000  H         1 MOL        0.4238 ****
3425 Hw         18.740000   10.740000   34.420000  H         1 MOL        0.4238 ****
3426 Ow         14.620000   28.990000   36.950000  O         1 MOL       -0.8476 ****
3427 Hw         14.530000   28.890000   37.940000  H         1 MOL        0.4238 ****
3428 Hw         15.580000   28.920000   36.690000  H         1 MOL        0.4238 ****
3429 Ow         25.710000   21.330000   27.040000  O         1 MOL       -0.8476 ****
3430 Hw         25.390000   22.050000   26.420000  H         1 MOL        0.4238 ****
3431 Hw         25.950000   20.520000   26.510000  H         1 MOL        0.4238 ****
3432 Ow         17.420000   26.130000   35.790000  O         1 MOL       -0.8476 ****
3433 Hw         17.800000   27.040000   35.940000  H         1 MOL        0.4238 ****
3434 Hw         17.340000   25.960000   34.800000  H         1 MOL        0.4238 ****
3435 Ow         27.280000   24.450000   30.280000  O         1 MOL       -0.8476 ****
3436 Hw         27.430000   24.660000   31.240000  H         1 MOL        0.4238 ****
3437 Hw         26.980000   23.500000   30.190000  H         1 MOL        0.4238 ****
3438 Ow          9.340000   21.820000   29.610000  O         1 MOL       -0.8476 ****
3439 Hw          9.090000   21.730000   28.650000  H         1 MOL        0.4238 ****
3440 Hw          9.820000   21.000000   29.920000  H         1 MOL        0.4238 ****
3441 Ow         16.690000   22.830000   32.680000  O         1 MOL       -0.8476 ****
3442 Hw         16.310000   22.140000   33.300000  H         1 MOL        0.4238 ****
3443 Hw         17.510000   22.470000   32.240000  H         1 MOL        0.4238 ****
3444 Ow         15.050000   17.530000   30.210000  O         1 MOL       -0.8476 ****
3445 Hw         15.380000   18.170000   29.520000  H         1 MOL        0.4238 ****
3446 Hw         15.710000   17.470000   30.960000  H         1 MOL        0.4238 ****
3447 Ow         20.120000    1.990000   32.930000  O         1 MOL       -0.8476 ****
3448 Hw         19.890000    2.360000   33.830000  H         1 MOL        0.4238 ****
3449 Hw         19.820000    1.040000   32.870000  H         1 MOL        0.4238 ****
3450 Ow         29.320000   15.360000   35.680000  O         1 MOL       -0.8476 ****
3451 Hw         29.380000   14.590000   36.320000  H         1 MOL        0.4238 ****
3452 Hw         28.800000   15.100000   34.880000  H         1 MOL        0.4238 ****
3453 Ow          2.370000   19.540000   30.580000  O         1 MOL       -0.8476 ****
3454 Hw          2.720000   19.370000   31.500000  H         1 MOL        0.4238 ****
3455 Hw          1.490000   19.090000   30.460000  H         1 MOL        0.4238 ****
3456 Ow         18.640000   28.160000   35.280000  O         1 MOL       -0.8476 ****
3457 Hw         18.860000   27.550000   36.040000  H         1 MOL        0.4238 ****
3458 Hw         18.740000   27.670000   34.420000  H         1 MOL        0.4238 ****
3459 Ow         14.520000   25.350000   34.600000  O         1 MOL       -0.8476 ****
3460 Hw         13.950000   25.870000   33.970000  H         1 MOL        0.4238 ****
3461 Hw         15.480000   25.470000   34.360000  H         1 MOL        0.4238 ****
3462 Ow          6.840000   13.770000   36.860000  O         1 MOL       -0.8476 ****
3463 Hw          6.060000   13.270000   37.240000  H         1 MOL        0.4238 ****
3464 Hw          6.810000   14.720000   37.170000  H         1 MOL        0.4238 ****
3465 Ow          8.420000   12.590000   34.840000  O         1 MOL       -0.8476 ****
3466 Hw          8.370000   12.920000   35.790000  H         1 MOL        0.4238 ****
3467 Hw          7.560000   12.780000   34.380000  H         1 MOL        0.4238 ****
3468 Ow         30.560000    5.760000   34.950000  O         1 MOL       -0.8476 ****
3469 Hw         30.840000    5.330000   35.800000  H         1 MOL        0.4238 ****
3470 Hw         30.810000    6.720000   34.960000  H         1 MOL        0.4238 ****
3471 Ow          5.850000    8.560000   30.910000  O         1 MOL       -0.8476 ****
3472 Hw          6.290000    9.450000   30.820000  H         1 MOL        0.4238 ****
3473 Hw          5.220000    8.560000   31.680000  H         1 MOL        0.4238 ****
3474 Ow         30.740000    9.360000   37.220000  O         1 MOL       -0.8476 ****
3475 Hw         31.130000   10.250000   37.420000  H         1 MOL        0.4238 ****
3476 Hw         30.840000    9.160000   36.250000  H         1 MOL        0.4238 ****
3477 Ow         15.670000   14.970000   27.650000  O         1 MOL       -0.8476 ****
3478 Hw         15.100000   14.810000   28.460000  H         1 MOL        0.4238 ****
3479 Hw         15.080000   15.070000   26.850000  H         1 MOL        0.4238 ****
3480 Ow         27.690000   13.330000   34.020000  O         1 MOL       -0.8476 ****
3481 Hw         26.890000   13.100000   34.570000  H         1 MOL        0.4238 ****
3482 Hw         28.520000   13.070000   34.510000  H         1 MOL        0.4238 ****
3483 Ow          3.190000    1.990000   32.930000  O         1 MOL       -0.8476 ****
3484 Hw          2.960000    2.360000   33.830000  H         1 MOL        0.4238 ****
3485 Hw          2.890000    1.040000   32.870000  H         1 MOL        0.4238 ****
3486 Ow          0.490000   12.960000   33.440000  O         1 MOL       -0.8476 ****
3487 Hw          1.020000   12.470000   34.120000  H         1 MOL        0.4238 ****
3488 Hw          0.710000   13.940000   33.490000  H         1 MOL        0.4238 ****
3489 Ow          4.140000    7.370000   36.600000  O         1 MOL       -0.8476 ****
3490 Hw          4.820000    7.920000   36.130000  H         1 MOL        0.4238 ****
3491 Hw          4.540000    6.490000   36.870000  H         1 MOL        0.4238 ****
3492 Ow         20.590000   31.890000   33.910000  O         1 MOL       -0.8476 ****
3493 Hw         20.380000   31.450000   33.040000  H         1 MOL        0.4238 ****
3494 Hw         21.560000   32.150000   33.940000  H         1 MOL        0.4238 ****
3495 Ow         22.990000   24.240000   27.140000  O         1 MOL       -0.8476 ****
3496 Hw         23.490000   25.090000   26.950000  H         1 MOL        0.4238 ****
3497 Hw         22.110000   24.260000   26.660000  H         1 MOL        0.4238 ****
3498 Ow          8.420000   29.520000   34.840000  O         1 MOL       -0.8476 ****
3499 Hw          8.370000   29.850000   35.790000  H         1 MOL        0.4238 ****
3500 Hw          7.560000   29.710000   34.380000  H         1 MOL        0.4238 ****
3501 Ow         13.720000   25.410000   31.070000  O         1 MOL       -0.8476 ****
3502 Hw         12.970000   25.410000   30.410000  H         1 MOL        0.4238 ****
3503 Hw         14.090000   24.490000   31.160000  H         1 MOL        0.4238 ****
3504 Ow          0.880000    7.970000   28.510000  O         1 MOL       -0.8476 ****
3505 Hw          1.870000    7.850000   28.600000  H         1 MOL        0.4238 ****
3506 Hw          0.640000    8.920000   28.720000  H         1 MOL        0.4238 ****
3507 Ow         16.150000    4.330000   27.990000  O         1 MOL       -0.8476 ****
3508 Hw         15.410000    4.790000   27.490000  H         1 MOL        0.4238 ****
3509 Hw         16.660000    5.010000   28.520000  H         1 MOL        0.4238 ****
3510 Ow         22.090000   15.540000   29.720000  O         1 MOL       -0.8476 ****
3511 Hw         22.750000   16.280000   29.810000  H         1 MOL        0.4238 ****
3512 Hw         22.530000   14.750000   29.300000  H         1 MOL        0.4238 ****
3513 Ow         13.740000   11.300000   26.070000  O         1 MOL       -0.8476 ****
3514 Hw         14.570000   11.010000   25.590000  H         1 MOL        0.4238 ****
3515 Hw         13.250000   11.970000   25.510000  H         1 MOL        0.4238 ****
3516 Ow         27.810000   23.620000   35.260000  O         1 MOL       -0.8476 ****
3517 Hw         27.010000   23.010000   35.290000  H         1 MOL        0.4238 ****
3518 Hw         28.620000   23.090000   35.020000  H         1 MOL        0.4238 ****
3519 Ow         13.720000    8.480000   31.070000  O         1 MOL       -0.8476 ****
3520 Hw         12.970000    8.480000   30.410000  H         1 MOL        0.4238 ****
3521 Hw         14.090000    7.560000   31.160000  H         1 MOL        0.4238 ****
3522 Ow          6.250000   30.440000   27.880000  O         1 MOL       -0.8476 ****
3523 Hw          5.760000   29.570000   27.970000  H         1 MOL        0.4238 ****
3524 Hw          6.020000   30.870000   27.010000  H         1 MOL        0.4238 ****
3525 Ow         29.320000   32.490000   28.550000  O         1 MOL       -0.8476 ****
3526 Hw         29.530000   33.230000   27.900000  H         1 MOL        0.4238 ****
3527 Hw         30.000000   32.490000   29.280000  H         1 MOL        0.4238 ****
3528 Ow         25.930000   31.930000   32.570000  O         1 MOL       -0.8476 ****
3529 Hw         25.700000   31.680000   31.630000  H         1 MOL        0.4238 ****
3530 Hw         26.540000   31.240000   32.960000  H         1 MOL        0.4238 ****
3531 Ow          3.310000    7.960000   30.110000  O         1 MOL       -0.8476 ****
3532 Hw          4.240000    8.320000   30.160000  H         1 MOL        0.4238 ****
3533 Hw          3.250000    7.110000   30.630000  H         1 MOL        0.4238 ****
3534 Ow          4.710000   11.380000   28.030000  O         1 MOL       -0.8476 ****
3535 Hw          4.000000   11.110000   28.680000  H         1 MOL        0.4238 ****
3536 Hw          4.450000   11.100000   27.100000  H         1 MOL        0.4238 ****
3537 Ow         28.160000   11.810000   31.620000  O         1 MOL       -0.8476 ****
3538 Hw         27.760000   12.250000   32.430000  H         1 MOL        0.4238 ****
3539 Hw         27.750000   12.180000   30.790000  H         1 MOL        0.4238 ****
3540 Ow         23.770000   35.740000   35.510000  O         1 MOL       -0.8476 ****
3541 Hw         24.670000   35.580000   35.110000  H         1 MOL        0.4238 ****
3542 Hw         23.850000   35.790000   36.500000  H         1 MOL        0.4238 ****
3543 Ow          0.880000   24.900000   28.510000  O         1 MOL       -0.8476 ****
3544 Hw          1.870000   24.780000   28.600000  H         1 MOL        0.4238 ****
3545 Hw          0.640000   25.850000   28.720000  H         1 MOL        0.4238 ****
3546 Ow         19.540000   34.640000   33.030000  O         1 MOL       -0.8476 ****
3547 Hw         20.110000   33.990000   33.530000  H         1 MOL        0.4238 ****
3548 Hw         19.380000   34.310000   32.100000  H         1 MOL        0.4238 ****
3549 Ow          6.730000   34.690000   30.150000  O         1 MOL       -0.8476 ****
3550 Hw          6.270000   35.570000   30.020000  H         1 MOL        0.4238 ****
3551 Hw          7.720000   34.810000   30.080000  H         1 MOL        0.4238 ****
3552 Ow         12.930000    3.310000   30.060000  O         1 MOL       -0.8476 ****
3553 Hw         12.070000    2.810000   29.930000  H         1 MOL        0.4238 ****
3554 Hw         13.550000    2.770000   30.620000  H         1 MOL        0.4238 ****
3555 Ow          5.850000   25.490000   30.910000  O         1 MOL       -0.8476 ****
3556 Hw          6.290000   26.380000   30.820000  H         1 MOL        0.4238 ****
3557 Hw          5.220000   25.490000   31.680000  H         1 MOL        0.4238 ****
3558 Ow         29.770000   31.240000   32.040000  O         1 MOL       -0.8476 ****
3559 Hw         30.240000   31.370000   32.910000  H         1 MOL        0.4238 ****
3560 Hw         29.110000   30.500000   32.130000  H         1 MOL        0.4238 ****
3561 Ow         10.260000    2.220000   30.330000  O         1 MOL       -0.8476 ****
3562 Hw         10.180000    1.860000   29.400000  H         1 MOL        0.4238 ****
3563 Hw         10.240000    1.460000   30.980000  H         1 MOL        0.4238 ****
3564 Ow          6.250000   13.510000   27.880000  O         1 MOL       -0.8476 ****
3565 Hw          5.760000   12.640000   27.970000  H         1 MOL        0.4238 ****
3566 Hw          6.020000   13.940000   27.010000  H         1 MOL        0.4238 ****
3567 Ow         15.670000   31.900000   27.650000  O         1 MOL       -0.8476 ****
3568 Hw         15.100000   31.740000   28.460000  H         1 MOL        0.4238 ****
3569 Hw         15.080000   32.000000   26.850000  H         1 MOL        0.4238 ****
3570 Ow          3.660000   31.890000   33.910000  O         1 MOL       -0.8476 ****
3571 Hw          3.450000   31.450000   33.040000  H         1 MOL        0.4238 ****
3572 Hw          4.630000   32.150000   33.940000  H         1 MOL        0.4238 ****
3573 Ow         20.560000   17.870000   29.150000  O         1 MOL       -0.8476 ****
3574 Hw         21.060000   17.010000   29.210000  H         1 MOL        0.4238 ****
3575 Hw         21.210000   18.640000   29.120000  H         1 MOL        0.4238 ****
3576 Ow         16.050000    2.070000   29.440000  O         1 MOL       -0.8476 ****
3577 Hw         15.210000    2.060000   29.980000  H         1 MOL        0.4238 ****
3578 Hw         16.070000    2.900000   28.880000  H         1 MOL        0.4238 ****
3579 Ow         23.230000   15.530000   33.460000  O         1 MOL       -0.8476 ****
3580 Hw         23.180000   16.350000   34.030000  H         1 MOL        0.4238 ****
3581 Hw         24.120000   15.500000   33.010000  H         1 MOL        0.4238 ****
3582 Ow          1.340000   23.220000   26.250000  O         1 MOL       -0.8476 ****
3583 Hw          0.890000   22.340000   26.420000  H         1 MOL        0.4238 ****
3584 Hw          1.330000   23.760000   27.090000  H         1 MOL        0.4238 ****
3585 Ow         17.810000   24.900000   28.510000  O         1 MOL       -0.8476 ****
3586 Hw         18.800000   24.780000   28.600000  H         1 MOL        0.4238 ****
3587 Hw         17.570000   25.850000   28.720000  H         1 MOL        0.4238 ****
3588 Ow         29.980000   12.140000   34.850000  O         1 MOL       -0.8476 ****
3589 Hw         30.350000   11.410000   34.270000  H         1 MOL        0.4238 ****
3590 Hw         30.500000   12.190000   35.700000  H         1 MOL        0.4238 ****
3591 Ow          7.800000   11.300000   30.850000  O         1 MOL       -0.8476 ****
3592 Hw          7.020000   11.470000   31.450000  H         1 MOL        0.4238 ****
3593 Hw          8.140000   12.170000   30.490000  H         1 MOL        0.4238 ****
3594 Ow         25.640000   26.350000   29.230000  O         1 MOL       -0.8476 ****
3595 Hw         26.180000   25.660000   29.710000  H         1 MOL        0.4238 ****
3596 Hw         25.320000   27.040000   29.890000  H         1 MOL        0.4238 ****
3597 Ow          2.610000   17.710000   33.030000  O         1 MOL       -0.8476 ****
3598 Hw          3.180000   17.060000   33.530000  H         1 MOL        0.4238 ****
3599 Hw          2.450000   17.380000   32.100000  H         1 MOL        0.4238 ****
3600 Ow         13.810000    9.360000   37.220000  O         1 MOL       -0.8476 ****
3601 Hw         14.200000   10.250000   37.420000  H         1 MOL        0.4238 ****
3602 Hw         13.910000    9.160000   36.250000  H         1 MOL        0.4238 ****
3603 Ow          8.240000   32.650000   27.490000  O         1 MOL       -0.8476 ****
3604 Hw          8.560000   32.750000   26.550000  H         1 MOL        0.4238 ****
3605 Hw          7.450000   32.030000   27.510000  H         1 MOL        0.4238 ****
3606 Ow          6.320000   17.720000   35.010000  O         1 MOL       -0.8476 ****
3607 Hw          5.400000   17.550000   35.360000  H         1 MOL        0.4238 ****
3608 Hw          6.600000   18.640000   35.270000  H         1 MOL        0.4238 ****
3609 Ow         12.860000    3.720000   33.240000  O         1 MOL       -0.8476 ****
3610 Hw         13.070000    4.460000   33.880000  H         1 MOL        0.4238 ****
3611 Hw         11.970000    3.890000   32.810000  H         1 MOL        0.4238 ****
3612 Ow          4.500000    3.780000   35.610000  O         1 MOL       -0.8476 ****
3613 Hw          5.320000    3.220000   35.700000  H         1 MOL        0.4238 ****
3614 Hw          3.690000    3.200000   35.650000  H         1 MOL        0.4238 ****
3615 Ow          8.150000   30.810000   29.860000  O         1 MOL       -0.8476 ****
3616 Hw          9.050000   30.950000   29.440000  H         1 MOL        0.4238 ****
3617 Hw          7.440000   30.830000   29.150000  H         1 MOL        0.4238 ****
3618 Ow         11.720000   18.860000   35.390000  O         1 MOL       -0.8476 ****
3619 Hw         11.720000   19.500000   36.160000  H         1 MOL        0.4238 ****
3620 Hw         12.000000   19.340000   34.560000  H         1 MOL        0.4238 ****
3621 Ow         22.780000    8.560000   30.910000  O         1 MOL       -0.8476 ****
3622 Hw         23.220000    9.450000   30.820000  H         1 MOL        0.4238 ****
3623 Hw         22.150000    8.560000   31.680000  H         1 MOL        0.4238 ****
3624 Ow         10.260000   19.150000   30.330000  O         1 MOL       -0.8476 ****
3625 Hw         10.180000   18.790000   29.400000  H         1 MOL        0.4238 ****
3626 Hw         10.240000   18.390000   30.980000  H         1 MOL        0.4238 ****
3627 Ow         11.470000   23.820000   27.790000  O         1 MOL       -0.8476 ****
3628 Hw         12.040000   24.600000   27.540000  H         1 MOL        0.4238 ****
3629 Hw         10.870000   24.080000   28.550000  H         1 MOL        0.4238 ****
3630 Ow         23.660000   34.690000   30.150000  O         1 MOL       -0.8476 ****
3631 Hw         23.200000   35.570000   30.020000  H         1 MOL        0.4238 ****
3632 Hw         24.650000   34.810000   30.080000  H         1 MOL        0.4238 ****
3633 Ow          6.300000   15.530000   33.460000  O         1 MOL       -0.8476 ****
3634 Hw          6.250000   16.350000   34.030000  H         1 MOL        0.4238 ****
3635 Hw          7.190000   15.500000   33.010000  H         1 MOL        0.4238 ****
3636 Ow          9.520000   16.840000   29.660000  O         1 MOL       -0.8476 ****
3637 Hw         10.320000   16.270000   29.870000  H         1 MOL        0.4238 ****
3638 Hw          9.030000   16.440000   28.890000  H         1 MOL        0.4238 ****
3639 Ow          0.760000   15.500000   33.930000  O         1 MOL       -0.8476 ****
3640 Hw          0.300000   16.320000   33.590000  H         1 MOL        0.4238 ****
3641 Hw          1.740000   15.690000   34.020000  H         1 MOL        0.4238 ****
3642 Ow         25.080000   30.810000   29.860000  O         1 MOL       -0.8476 ****
3643 Hw         25.980000   30.950000   29.440000  H         1 MOL        0.4238 ****
3644 Hw         24.370000   30.830000   29.150000  H         1 MOL        0.4238 ****
3645 Ow         26.200000   17.680000   34.640000  O         1 MOL       -0.8476 ****
3646 Hw         26.450000   17.480000   33.690000  H         1 MOL        0.4238 ****
3647 Hw         26.920000   18.240000   35.060000  H         1 MOL        0.4238 ****
3648 Ow         27.190000    2.220000   30.330000  O         1 MOL       -0.8476 ****
3649 Hw         27.110000    1.860000   29.400000  H         1 MOL        0.4238 ****
3650 Hw         27.170000    1.460000   30.980000  H         1 MOL        0.4238 ****
3651 Ow         23.180000   13.510000   27.880000  O         1 MOL       -0.8476 ****
3652 Hw         22.690000   12.640000   27.970000  H         1 MOL        0.4238 ****
3653 Hw         22.950000   13.940000   27.010000  H         1 MOL        0.4238 ****
3654 Ow         25.120000   22.840000   35.270000  O         1 MOL       -0.8476 ****
3655 Hw         24.650000   22.810000   36.160000  H         1 MOL        0.4238 ****
3656 Hw         24.610000   22.290000   34.610000  H         1 MOL        0.4238 ****
3657 Ow         19.020000    9.620000   33.260000  O         1 MOL       -0.8476 ****
3658 Hw         19.910000    9.170000   33.120000  H         1 MOL        0.4238 ****
3659 Hw         18.290000    8.970000   33.070000  H         1 MOL        0.4238 ****
3660 Ow          3.840000   29.670000   35.520000  O         1 MOL       -0.8476 ****
3661 Hw          3.710000   30.600000   35.180000  H         1 MOL        0.4238 ****
3662 Hw          3.000000   29.150000   35.390000  H         1 MOL        0.4238 ****
3663 Ow         20.120000   18.920000   32.930000  O         1 MOL       -0.8476 ****
3664 Hw         19.890000   19.290000   33.830000  H         1 MOL        0.4238 ****
3665 Hw         19.820000   17.970000   32.870000  H         1 MOL        0.4238 ****
3666 Ow         19.680000   20.050000   27.820000  O         1 MOL       -0.8476 ****
3667 Hw         18.890000   20.560000   27.480000  H         1 MOL        0.4238 ****
3668 Hw         19.590000   19.900000   28.800000  H         1 MOL        0.4238 ****
3669 Ow         17.040000   32.480000   29.130000  O         1 MOL       -0.8476 ****
3670 Hw         16.330000   32.360000   28.430000  H         1 MOL        0.4238 ****
3671 Hw         17.050000   31.690000   29.730000  H         1 MOL        0.4238 ****
3672 Ow         16.060000   17.930000   35.420000  O         1 MOL       -0.8476 ****
3673 Hw         15.880000   18.600000   34.700000  H         1 MOL        0.4238 ****
3674 Hw         16.030000   18.390000   36.310000  H         1 MOL        0.4238 ****
3675 Ow         12.830000   34.760000   26.530000  O         1 MOL       -0.8476 ****
3676 Hw         13.270000   35.400000   25.890000  H         1 MOL        0.4238 ****
3677 Hw         12.330000   35.280000   27.230000  H         1 MOL        0.4238 ****
3678 Ow         30.650000   25.410000   31.070000  O         1 MOL       -0.8476 ****
3679 Hw         29.900000   25.410000   30.410000  H         1 MOL        0.4238 ****
3680 Hw         31.020000   24.490000   31.160000  H         1 MOL        0.4238 ****
3681 Ow         23.760000   21.430000   33.310000  O         1 MOL       -0.8476 ****
3682 Hw         23.420000   20.540000   33.010000  H         1 MOL        0.4238 ****
3683 Hw         24.020000   21.970000   32.510000  H         1 MOL        0.4238 ****
3684 Ow         25.170000   32.650000   27.490000  O         1 MOL       -0.8476 ****
3685 Hw         25.490000   32.750000   26.550000  H         1 MOL        0.4238 ****
3686 Hw         24.380000   32.030000   27.510000  H         1 MOL        0.4238 ****
3687 Ow         30.520000   10.450000   32.960000  O         1 MOL       -0.8476 ****
3688 Hw         30.760000    9.820000   32.220000  H         1 MOL        0.4238 ****
3689 Hw         29.620000   10.850000   32.780000  H         1 MOL        0.4238 ****
3690 Ow         17.550000   22.970000   29.180000  O         1 MOL       -0.8476 ****
3691 Hw         17.880000   23.910000   29.180000  H         1 MOL        0.4238 ****
3692 Hw         18.060000   22.430000   29.840000  H         1 MOL        0.4238 ****
3693 Ow         12.830000   17.830000   26.530000  O         1 MOL       -0.8476 ****
3694 Hw         13.270000   18.470000   25.890000  H         1 MOL        0.4238 ****
3695 Hw         12.330000   18.350000   27.230000  H         1 MOL        0.4238 ****
3696 Ow         16.690000    5.900000   32.680000  O         1 MOL       -0.8476 ****
3697 Hw         16.310000    5.210000   33.300000  H         1 MOL        0.4238 ****
3698 Hw         17.510000    5.540000   32.240000  H         1 MOL        0.4238 ****
3699 Ow         17.690000   15.500000   33.930000  O         1 MOL       -0.8476 ****
3700 Hw         17.230000   16.320000   33.590000  H         1 MOL        0.4238 ****
3701 Hw         18.670000   15.690000   34.020000  H         1 MOL        0.4238 ****
3702 Ow         20.120000   34.340000   26.800000  O         1 MOL       -0.8476 ****
3703 Hw         20.010000   35.280000   27.130000  H         1 MOL        0.4238 ****
3704 Hw         20.070000   33.710000   27.570000  H         1 MOL        0.4238 ****
3705 Ow         10.030000    3.960000   33.040000  O         1 MOL       -0.8476 ****
3706 Hw          9.260000    4.300000   33.580000  H         1 MOL        0.4238 ****
3707 Hw          9.690000    3.450000   32.250000  H         1 MOL        0.4238 ****
3708 Ow         20.400000   14.210000   31.230000  O         1 MOL       -0.8476 ****
3709 Hw         19.620000   13.900000   30.700000  H         1 MOL        0.4238 ****
3710 Hw         20.980000   14.790000   30.660000  H         1 MOL        0.4238 ****
3711 Ow          9.270000   34.600000   34.640000  O         1 MOL       -0.8476 ****
3712 Hw          9.520000   34.400000   33.690000  H         1 MOL        0.4238 ****
3713 Hw          9.990000   35.160000   35.060000  H         1 MOL        0.4238 ****
3714 Ow         22.710000   22.160000   29.270000  O         1 MOL       -0.8476 ****
3715 Hw         22.830000   22.820000   28.530000  H         1 MOL        0.4238 ****
3716 Hw         23.170000   22.500000   30.100000  H         1 MOL        0.4238 ****
3717 Ow         27.220000   34.100000   28.150000  O         1 MOL       -0.8476 ****
3718 Hw         26.500000   34.150000   27.460000  H         1 MOL        0.4238 ****
3719 Hw         26.980000   33.410000   28.840000  H         1 MOL        0.4238 ****
3720 Ow         27.070000    7.820000   33.000000  O         1 MOL       -0.8476 ****
3721 Hw         27.480000    7.500000   33.860000  H         1 MOL        0.4238 ****
3722 Hw         26.110000    7.550000   32.970000  H         1 MOL        0.4238 ****
3723 Ow         29.980000   29.070000   34.850000  O         1 MOL       -0.8476 ****
3724 Hw         30.350000   28.340000   34.270000  H         1 MOL        0.4238 ****
3725 Hw         30.500000   29.120000   35.700000  H         1 MOL        0.4238 ****
3726 Ow         12.370000    3.110000   25.110000  O         1 MOL       -0.8476 ****
3727 Hw         13.020000    2.370000   25.000000  H         1 MOL        0.4238 ****
3728 Hw         12.570000    3.610000   25.950000  H         1 MOL        0.4238 ****
3729 Ow         10.290000   34.100000   28.150000  O         1 MOL       -0.8476 ****
3730 Hw          9.570000   34.150000   27.460000  H         1 MOL        0.4238 ****
3731 Hw         10.050000   33.410000   28.840000  H         1 MOL        0.4238 ****
3732 Ow          8.710000   26.350000   29.230000  O         1 MOL       -0.8476 ****
3733 Hw          9.250000   25.660000   29.710000  H         1 MOL        0.4238 ****
3734 Hw          8.390000   27.040000   29.890000  H         1 MOL        0.4238 ****
3735 Ow         28.400000    6.890000   27.790000  O         1 MOL       -0.8476 ****
3736 Hw         28.970000    7.670000   27.540000  H         1 MOL        0.4238 ****
3737 Hw         27.800000    7.150000   28.550000  H         1 MOL        0.4238 ****
3738 Ow         29.790000   20.650000   33.240000  O         1 MOL       -0.8476 ****
3739 Hw         30.000000   21.390000   33.880000  H         1 MOL        0.4238 ****
3740 Hw         28.900000   20.820000   32.810000  H         1 MOL        0.4238 ****
3741 Ow         10.290000   17.180000   28.150000  O         1 MOL       -0.8476 ****
3742 Hw          9.570000   17.230000   27.460000  H         1 MOL        0.4238 ****
3743 Hw         10.050000   16.490000   28.840000  H         1 MOL        0.4238 ****
3744 Ow          1.710000   11.230000   35.280000  O         1 MOL       -0.8476 ****
3745 Hw          1.930000   10.620000   36.040000  H         1 MOL        0.4238 ****
3746 Hw          1.810000   10.740000   34.420000  H         1 MOL        0.4238 ****
3747 Ow         10.880000    6.690000   35.260000  O         1 MOL       -0.8476 ****
3748 Hw         10.080000    6.080000   35.290000  H         1 MOL        0.4238 ****
3749 Hw         11.690000    6.160000   35.020000  H         1 MOL        0.4238 ****
3750 Ow         29.320000   15.560000   28.550000  O         1 MOL       -0.8476 ****
3751 Hw         29.530000   16.300000   27.900000  H         1 MOL        0.4238 ****
3752 Hw         30.000000   15.560000   29.280000  H         1 MOL        0.4238 ****
3753 Ow         12.920000    9.130000   27.340000  O         1 MOL       -0.8476 ****
3754 Hw         13.520000    8.320000   27.360000  H         1 MOL        0.4238 ****
3755 Hw         13.320000    9.820000   26.740000  H         1 MOL        0.4238 ****
3756 Ow         25.640000    9.420000   29.230000  O         1 MOL       -0.8476 ****
3757 Hw         26.180000    8.730000   29.710000  H         1 MOL        0.4238 ****
3758 Hw         25.320000   10.110000   29.890000  H         1 MOL        0.4238 ****
3759 Ow          8.780000    4.400000   27.040000  O         1 MOL       -0.8476 ****
3760 Hw          8.460000    5.120000   26.420000  H         1 MOL        0.4238 ****
3761 Hw          9.020000    3.590000   26.510000  H         1 MOL        0.4238 ****
3762 Ow         12.840000   31.240000   32.040000  O         1 MOL       -0.8476 ****
3763 Hw         13.310000   31.370000   32.910000  H         1 MOL        0.4238 ****
3764 Hw         12.180000   30.500000   32.130000  H         1 MOL        0.4238 ****
3765 Ow         14.410000   28.520000   29.290000  O         1 MOL       -0.8476 ****
3766 Hw         13.860000   27.680000   29.220000  H         1 MOL        0.4238 ****
3767 Hw         14.670000   28.810000   28.370000  H         1 MOL        0.4238 ****
3768 Ow         23.770000    1.890000   35.510000  O         1 MOL       -0.8476 ****
3769 Hw         24.670000    1.730000   35.110000  H         1 MOL        0.4238 ****
3770 Hw         23.850000    1.940000   36.500000  H         1 MOL        0.4238 ****
3771 Ow         19.350000   14.200000   26.000000  O         1 MOL       -0.8476 ****
3772 Hw         19.090000   15.160000   26.000000  H         1 MOL        0.4238 ****
3773 Hw         18.640000   13.660000   26.450000  H         1 MOL        0.4238 ****
3774 Ow         28.400000   23.820000   27.790000  O         1 MOL       -0.8476 ****
3775 Hw         28.970000   24.600000   27.540000  H         1 MOL        0.4238 ****
3776 Hw         27.800000   24.080000   28.550000  H         1 MOL        0.4238 ****
3777 Ow         21.150000    7.990000   33.130000  O         1 MOL       -0.8476 ****
3778 Hw         22.010000    8.110000   33.630000  H         1 MOL        0.4238 ****
3779 Hw         20.730000    7.120000   33.400000  H         1 MOL        0.4238 ****
3780 Ow         19.450000   10.770000   29.480000  O         1 MOL       -0.8476 ****
3781 Hw         19.590000    9.930000   30.000000  H         1 MOL        0.4238 ****
3782 Hw         18.900000   11.410000   30.030000  H         1 MOL        0.4238 ****
3783 Ow          5.620000   18.750000   29.470000  O         1 MOL       -0.8476 ****
3784 Hw          5.570000   18.700000   30.470000  H         1 MOL        0.4238 ****
3785 Hw          5.640000   19.710000   29.180000  H         1 MOL        0.4238 ****
3786 Ow         17.550000    6.040000   29.180000  O         1 MOL       -0.8476 ****
3787 Hw         17.880000    6.980000   29.180000  H         1 MOL        0.4238 ****
3788 Hw         18.060000    5.500000   29.840000  H         1 MOL        0.4238 ****
3789 Ow          3.510000    4.950000   30.680000  O         1 MOL       -0.8476 ****
3790 Hw          2.990000    4.120000   30.510000  H         1 MOL        0.4238 ****
3791 Hw          4.280000    5.000000   30.040000  H         1 MOL        0.4238 ****
3792 Ow         14.720000   14.910000   34.010000  O         1 MOL       -0.8476 ****
3793 Hw         14.960000   15.850000   34.270000  H         1 MOL        0.4238 ****
3794 Hw         14.560000   14.370000   34.830000  H         1 MOL        0.4238 ****
3795 Ow          3.290000    5.330000   33.420000  O         1 MOL       -0.8476 ****
3796 Hw          3.670000    4.740000   34.140000  H         1 MOL        0.4238 ****
3797 Hw          3.690000    5.070000   32.540000  H         1 MOL        0.4238 ****
3798 Ow          6.970000    9.980000   27.270000  O         1 MOL       -0.8476 ****
3799 Hw          7.660000    9.820000   27.970000  H         1 MOL        0.4238 ****
3800 Hw          6.240000   10.550000   27.650000  H         1 MOL        0.4238 ****
3801 Ow          2.750000    3.120000   27.820000  O         1 MOL       -0.8476 ****
3802 Hw          1.960000    3.630000   27.480000  H         1 MOL        0.4238 ****
3803 Hw          2.660000    2.970000   28.800000  H         1 MOL        0.4238 ****
3804 Ow         21.640000   28.310000   28.030000  O         1 MOL       -0.8476 ****
3805 Hw         20.930000   28.040000   28.680000  H         1 MOL        0.4238 ****
3806 Hw         21.380000   28.030000   27.100000  H         1 MOL        0.4238 ****
3807 Ow          3.190000   34.340000   26.800000  O         1 MOL       -0.8476 ****
3808 Hw          3.080000   35.280000   27.130000  H         1 MOL        0.4238 ****
3809 Hw          3.140000   33.710000   27.570000  H         1 MOL        0.4238 ****
3810 Ow         10.760000   30.260000   34.020000  O         1 MOL       -0.8476 ****
3811 Hw          9.960000   30.030000   34.570000  H         1 MOL        0.4238 ****
3812 Hw         11.590000   30.000000   34.510000  H         1 MOL        0.4238 ****
3813 Ow          5.620000    1.820000   29.470000  O         1 MOL       -0.8476 ****
3814 Hw          5.570000    1.770000   30.470000  H         1 MOL        0.4238 ****
3815 Hw          5.640000    2.780000   29.180000  H         1 MOL        0.4238 ****
3816 Ow         17.840000   12.260000   27.150000  O         1 MOL       -0.8476 ****
3817 Hw         17.830000   11.790000   28.030000  H         1 MOL        0.4238 ****
3818 Hw         18.660000   11.980000   26.640000  H         1 MOL        0.4238 ****
3819 Ow         25.270000   26.810000   34.340000  O         1 MOL       -0.8476 ****
3820 Hw         25.670000   26.800000   33.420000  H         1 MOL        0.4238 ****
3821 Hw         25.370000   27.730000   34.740000  H         1 MOL        0.4238 ****
3822 Ow         23.760000    4.500000   33.310000  O         1 MOL       -0.8476 ****
3823 Hw         23.420000    3.610000   33.010000  H         1 MOL        0.4238 ****
3824 Hw         24.020000    5.040000   32.510000  H         1 MOL        0.4238 ****
3825 Ow         26.960000    3.960000   33.040000  O         1 MOL       -0.8476 ****
3826 Hw         26.190000    4.300000   33.580000  H         1 MOL        0.4238 ****
3827 Hw         26.620000    3.450000   32.250000  H         1 MOL        0.4238 ****
3828 Ow         22.740000   12.610000   32.270000  O         1 MOL       -0.8476 ****
3829 Hw         21.810000   12.540000   31.900000  H         1 MOL        0.4238 ****
3830 Hw         22.850000   13.500000   32.710000  H         1 MOL        0.4238 ****
3831 Ow         12.860000   20.650000   33.240000  O         1 MOL       -0.8476 ****
3832 Hw         13.070000   21.390000   33.880000  H         1 MOL        0.4238 ****
3833 Hw         11.970000   20.820000   32.810000  H         1 MOL        0.4238 ****
3834 Ow         20.240000   24.890000   30.110000  O         1 MOL       -0.8476 ****
3835 Hw         21.170000   25.250000   30.160000  H         1 MOL        0.4238 ****
3836 Hw         20.180000   24.040000   30.630000  H         1 MOL        0.4238 ****
3837 Ow         25.710000    4.400000   27.040000  O         1 MOL       -0.8476 ****
3838 Hw         25.390000    5.120000   26.420000  H         1 MOL        0.4238 ****
3839 Hw         25.950000    3.590000   26.510000  H         1 MOL        0.4238 ****
3840 Ow         24.730000   28.230000   30.850000  O         1 MOL       -0.8476 ****
3841 Hw         23.950000   28.400000   31.450000  H         1 MOL        0.4238 ****
3842 Hw         25.070000   29.100000   30.490000  H         1 MOL        0.4238 ****
3843 Ow         25.120000    5.910000   35.270000  O         1 MOL       -0.8476 ****
3844 Hw         24.650000    5.880000   36.160000  H         1 MOL        0.4238 ****
3845 Hw         24.610000    5.360000   34.610000  H         1 MOL        0.4238 ****
3846 Ow         22.550000    1.820000   29.470000  O         1 MOL       -0.8476 ****
3847 Hw         22.500000    1.770000   30.470000  H         1 MOL        0.4238 ****
3848 Hw         22.570000    2.780000   29.180000  H         1 MOL        0.4238 ****
3849 Ow         14.360000   18.930000   31.740000  O         1 MOL       -0.8476 ****
3850 Hw         14.880000   18.280000   32.290000  H         1 MOL        0.4238 ****
3851 Hw         13.870000   19.560000   32.350000  H         1 MOL        0.4238 ****
3852 Ow          0.520000   22.230000   31.760000  O         1 MOL       -0.8476 ****
3853 Hw          1.370000   21.900000   31.350000  H         1 MOL        0.4238 ****
3854 Hw          0.650000   22.380000   32.740000  H         1 MOL        0.4238 ****
3855 Ow         29.320000   32.290000   35.680000  O         1 MOL       -0.8476 ****
3856 Hw         29.380000   31.520000   36.320000  H         1 MOL        0.4238 ****
3857 Hw         28.800000   32.030000   34.880000  H         1 MOL        0.4238 ****
3858 Ow          2.140000    2.710000   35.600000  O         1 MOL       -0.8476 ****
3859 Hw          1.340000    3.310000   35.470000  H         1 MOL        0.4238 ****
3860 Hw          2.040000    2.220000   36.460000  H         1 MOL        0.4238 ****
3861 Ow         20.440000    4.950000   30.680000  O         1 MOL       -0.8476 ****
3862 Hw         19.920000    4.120000   30.510000  H         1 MOL        0.4238 ****
3863 Hw         21.210000    5.000000   30.040000  H         1 MOL        0.4238 ****
3864 Ow         10.510000   10.840000   27.580000  O         1 MOL       -0.8476 ****
3865 Hw          9.810000   10.370000   28.120000  H         1 MOL        0.4238 ****
3866 Hw         11.100000   10.160000   27.150000  H         1 MOL        0.4238 ****
3867 Ow          5.730000    2.080000   32.090000  O         1 MOL       -0.8476 ****
3868 Hw          6.110000    1.240000   32.460000  H         1 MOL        0.4238 ****
3869 Hw          4.850000    2.270000   32.530000  H         1 MOL        0.4238 ****
3870 Ow         14.720000   31.840000   34.010000  O         1 MOL       -0.8476 ****
3871 Hw         14.960000   32.780000   34.270000  H         1 MOL        0.4238 ****
3872 Hw         14.560000   31.300000   34.830000  H         1 MOL        0.4238 ****
3873 Ow         26.450000   33.770000   29.660000  O         1 MOL       -0.8476 ****
3874 Hw         27.250000   33.200000   29.870000  H         1 MOL        0.4238 ****
3875 Hw         25.960000   33.370000   28.890000  H         1 MOL        0.4238 ****
3876 Ow         22.550000   18.750000   29.470000  O         1 MOL       -0.8476 ****
3877 Hw         22.500000   18.700000   30.470000  H         1 MOL        0.4238 ****
3878 Hw         22.570000   19.710000   29.180000  H         1 MOL        0.4238 ****
3879 Ow         10.880000   23.620000   35.260000  O         1 MOL       -0.8476 ****
3880 Hw         10.080000   23.010000   35.290000  H         1 MOL        0.4238 ****
3881 Hw         11.690000   23.090000   35.020000  H         1 MOL        0.4238 ****
3882 Ow         12.390000   15.360000   35.680000  O         1 MOL       -0.8476 ****
3883 Hw         12.450000   14.590000   36.320000  H         1 MOL        0.4238 ****
3884 Hw         11.870000   15.100000   34.880000  H         1 MOL        0.4238 ****
3885 Ow         26.450000   16.840000   29.660000  O         1 MOL       -0.8476 ****
3886 Hw         27.250000   16.270000   29.870000  H         1 MOL        0.4238 ****
3887 Hw         25.960000   16.440000   28.890000  H         1 MOL        0.4238 ****
3888 Ow         25.350000   12.590000   34.840000  O         1 MOL       -0.8476 ****
3889 Hw         25.300000   12.920000   35.790000  H         1 MOL        0.4238 ****
3890 Hw         24.490000   12.780000   34.380000  H         1 MOL        0.4238 ****
3891 Ow          6.250000    8.280000   34.930000  O         1 MOL       -0.8476 ****
3892 Hw          6.810000    9.090000   34.760000  H         1 MOL        0.4238 ****
3893 Hw          6.840000    7.480000   34.960000  H         1 MOL        0.4238 ****
3894 Ow         16.790000   17.000000   26.340000  O         1 MOL       -0.8476 ****
3895 Hw         16.380000   16.770000   25.460000  H         1 MOL        0.4238 ****
3896 Hw         16.610000   16.260000   26.990000  H         1 MOL        0.4238 ****
3897 Ow         14.520000    8.420000   34.600000  O         1 MOL       -0.8476 ****
3898 Hw         13.950000    8.940000   33.970000  H         1 MOL        0.4238 ****
3899 Hw         15.480000    8.540000   34.360000  H         1 MOL        0.4238 ****
3900 Ow         19.450000   27.700000   29.480000  O         1 MOL       -0.8476 ****
3901 Hw         19.590000   26.860000   30.000000  H         1 MOL        0.4238 ****
3902 Hw         18.900000   28.340000   30.030000  H         1 MOL        0.4238 ****
3903 Ow          0.760000   32.430000   33.930000  O         1 MOL       -0.8476 ****
3904 Hw          0.300000   33.250000   33.590000  H         1 MOL        0.4238 ****
3905 Hw          1.740000   32.620000   34.020000  H         1 MOL        0.4238 ****
3906 Ow         13.590000   10.450000   32.960000  O         1 MOL       -0.8476 ****
3907 Hw         13.830000    9.820000   32.220000  H         1 MOL        0.4238 ****
3908 Hw         12.690000   10.850000   32.780000  H         1 MOL        0.4238 ****
3909 Ow         18.360000   18.710000   32.890000  O         1 MOL       -0.8476 ****
3910 Hw         18.320000   17.810000   33.330000  H         1 MOL        0.4238 ****
3911 Hw         18.390000   18.600000   31.900000  H         1 MOL        0.4238 ****
3912 Ow         19.070000   19.640000   35.600000  O         1 MOL       -0.8476 ****
3913 Hw         18.270000   20.240000   35.470000  H         1 MOL        0.4238 ****
3914 Hw         18.970000   19.150000   36.460000  H         1 MOL        0.4238 ****
3915 Ow         18.070000   27.450000   29.350000  O         1 MOL       -0.8476 ****
3916 Hw         17.450000   27.300000   28.590000  H         1 MOL        0.4238 ****
3917 Hw         17.550000   27.560000   30.200000  H         1 MOL        0.4238 ****
3918 Ow         22.660000    2.080000   32.090000  O         1 MOL       -0.8476 ****
3919 Hw         23.040000    1.240000   32.460000  H         1 MOL        0.4238 ****
3920 Hw         21.780000    2.270000   32.530000  H         1 MOL        0.4238 ****
3921 Ow          0.900000   22.350000   34.480000  O         1 MOL       -0.8476 ****
3922 Hw          1.820000   22.340000   34.070000  H         1 MOL        0.4238 ****
3923 Hw          0.840000   23.090000   35.150000  H         1 MOL        0.4238 ****
3924 Ow         26.270000    4.890000   29.610000  O         1 MOL       -0.8476 ****
3925 Hw         26.020000    4.800000   28.650000  H         1 MOL        0.4238 ****
3926 Hw         26.750000    4.070000   29.920000  H         1 MOL        0.4238 ****
3927 Ow         17.010000    9.080000   26.740000  O         1 MOL       -0.8476 ****
3928 Hw         17.960000    8.790000   26.820000  H         1 MOL        0.4238 ****
3929 Hw         16.930000    9.730000   25.990000  H         1 MOL        0.4238 ****
3930 Ow         20.770000   29.670000   35.520000  O         1 MOL       -0.8476 ****
3931 Hw         20.640000   30.600000   35.180000  H         1 MOL        0.4238 ****
3932 Hw         19.930000   29.150000   35.390000  H         1 MOL        0.4238 ****
3933 Ow          6.970000   26.910000   27.270000  O         1 MOL       -0.8476 ****
3934 Hw          7.660000   26.750000   27.970000  H         1 MOL        0.4238 ****
3935 Hw          6.240000   27.480000   27.650000  H         1 MOL        0.4238 ****
3936 Ow         17.040000   15.550000   29.130000  O         1 MOL       -0.8476 ****
3937 Hw         16.330000   15.430000   28.430000  H         1 MOL        0.4238 ****
3938 Hw         17.050000   14.760000   29.730000  H         1 MOL        0.4238 ****
3939 Ow         25.930000   15.000000   32.570000  O         1 MOL       -0.8476 ****
3940 Hw         25.700000   14.750000   31.630000  H         1 MOL        0.4238 ****
3941 Hw         26.540000   14.310000   32.960000  H         1 MOL        0.4238 ****
3942 Ow         17.420000    9.200000   35.790000  O         1 MOL       -0.8476 ****
3943 Hw         17.800000   10.110000   35.940000  H         1 MOL        0.4238 ****
3944 Hw         17.340000    9.030000   34.800000  H         1 MOL        0.4238 ****
3945 Ow         21.430000   20.710000   35.610000  O         1 MOL       -0.8476 ****
3946 Hw         22.250000   20.150000   35.700000  H         1 MOL        0.4238 ****
3947 Hw         20.620000   20.130000   35.650000  H         1 MOL        0.4238 ****
3948 Ow         28.650000   18.860000   35.390000  O         1 MOL       -0.8476 ****
3949 Hw         28.650000   19.500000   36.160000  H         1 MOL        0.4238 ****
3950 Hw         28.930000   19.340000   34.560000  H         1 MOL        0.4238 ****
3951 Ow          4.220000    7.990000   33.130000  O         1 MOL       -0.8476 ****
3952 Hw          5.080000    8.110000   33.630000  H         1 MOL        0.4238 ****
3953 Hw          3.800000    7.120000   33.400000  H         1 MOL        0.4238 ****
3954 Ow          3.190000   18.920000   32.930000  O         1 MOL       -0.8476 ****
3955 Hw          2.960000   19.290000   33.830000  H         1 MOL        0.4238 ****
3956 Hw          2.890000   17.970000   32.870000  H         1 MOL        0.4238 ****
3957 Ow         16.060000   34.850000   35.420000  O         1 MOL       -0.8476 ****
3958 Hw         15.880000   35.520000   34.700000  H         1 MOL        0.4238 ****
3959 Hw         16.030000   35.310000   36.310000  H         1 MOL        0.4238 ****
3960 Ow         13.120000   21.320000   27.530000  O         1 MOL       -0.8476 ****
3961 Hw         12.530000   22.120000   27.570000  H         1 MOL        0.4238 ****
3962 Hw         13.270000   20.970000   28.460000  H         1 MOL        0.4238 ****
3963 Ow         13.050000   29.070000   34.850000  O         1 MOL       -0.8476 ****
3964 Hw         13.420000   28.340000   34.270000  H         1 MOL        0.4238 ****
3965 Hw         13.570000   29.120000   35.700000  H         1 MOL        0.4238 ****
3966 Ow          2.010000    5.060000   37.840000  O         1 MOL       -0.8476 ****
3967 Hw          2.600000    4.660000   37.140000  H         1 MOL        0.4238 ****
3968 Hw          1.430000    5.770000   37.430000  H         1 MOL        0.4238 ****
3969 Ow          5.160000   15.540000   29.720000  O         1 MOL       -0.8476 ****
3970 Hw          5.820000   16.280000   29.810000  H         1 MOL        0.4238 ****
3971 Hw          5.600000   14.750000   29.300000  H         1 MOL        0.4238 ****
3972 Ow         23.900000    9.980000   27.270000  O         1 MOL       -0.8476 ****
3973 Hw         24.590000    9.820000   27.970000  H         1 MOL        0.4238 ****
3974 Hw         23.170000   10.550000   27.650000  H         1 MOL        0.4238 ****
3975 Ow         23.250000   34.650000   35.010000  O         1 MOL       -0.8476 ****
3976 Hw         22.330000   34.480000   35.360000  H         1 MOL        0.4238 ****
3977 Hw         23.530000   35.570000   35.270000  H         1 MOL        0.4238 ****
3978 Ow         25.170000   15.720000   27.490000  O         1 MOL       -0.8476 ****
3979 Hw         25.490000   15.820000   26.550000  H         1 MOL        0.4238 ****
3980 Hw         24.380000   15.100000   27.510000  H         1 MOL        0.4238 ****
3981 Ow         17.240000   20.470000   27.090000  O         1 MOL       -0.8476 ****
3982 Hw         16.420000   20.900000   27.480000  H         1 MOL        0.4238 ****
3983 Hw         16.960000   19.740000   26.460000  H         1 MOL        0.4238 ****
3984 Ow         26.200000    0.750000   34.640000  O         1 MOL       -0.8476 ****
3985 Hw         26.450000    0.550000   33.690000  H         1 MOL        0.4238 ****
3986 Hw         26.920000    1.310000   35.060000  H         1 MOL        0.4238 ****
3987 Ow          2.750000   20.050000   27.820000  O         1 MOL       -0.8476 ****
3988 Hw          1.960000   20.560000   27.480000  H         1 MOL        0.4238 ****
3989 Hw          2.660000   19.900000   28.800000  H         1 MOL        0.4238 ****
3990 Ow         17.240000    3.540000   27.090000  O         1 MOL       -0.8476 ****
3991 Hw         16.420000    3.970000   27.480000  H         1 MOL        0.4238 ****
3992 Hw         16.960000    2.810000   26.460000  H         1 MOL        0.4238 ****
3993 Ow         18.360000   35.630000   32.890000  O         1 MOL       -0.8476 ****
3994 Hw         18.320000   34.730000   33.330000  H         1 MOL        0.4238 ****
3995 Hw         18.390000   35.520000   31.900000  H         1 MOL        0.4238 ****
3996 Ow          2.090000   26.550000   33.260000  O         1 MOL       -0.8476 ****
3997 Hw          2.980000   26.100000   33.120000  H         1 MOL        0.4238 ****
3998 Hw          1.360000   25.900000   33.070000  H         1 MOL        0.4238 ****
3999 Ow         18.530000   35.460000   30.250000  O         1 MOL       -0.8476 ****
4000 Hw         18.920000   34.610000   29.890000  H         1 MOL        0.4238 ****
4001 Hw         17.550000   35.480000   30.060000  H         1 MOL        0.4238 ****
4002 Ow          5.510000   34.350000   25.740000  O         1 MOL       -0.8476 ****
4003 Hw          4.700000   34.360000   26.320000  H         1 MOL        0.4238 ****
4004 Hw          5.540000   35.180000   25.190000  H         1 MOL        0.4238 ****
4005 Ow          4.020000   17.270000   36.220000  O         1 MOL       -0.8476 ****
4006 Hw          3.110000   17.680000   36.200000  H         1 MOL        0.4238 ****
4007 Hw          3.950000   16.330000   36.540000  H         1 MOL        0.4238 ****
4008 Ow         17.710000   34.260000   32.160000  O         1 MOL       -0.8476 ****
4009 Hw         18.320000   34.560000   31.430000  H         1 MOL        0.4238 ****
4010 Hw         17.330000   33.370000   31.940000  H         1 MOL        0.4238 ****
4011 Ow          6.320000   34.650000   35.010000  O         1 MOL       -0.8476 ****
4012 Hw          5.400000   34.480000   35.360000  H         1 MOL        0.4238 ****
4013 Hw          6.600000   35.570000   35.270000  H         1 MOL        0.4238 ****
4014 Ow         14.780000    5.760000   30.540000  O         1 MOL       -0.8476 ****
4015 Hw         14.480000    4.810000   30.610000  H         1 MOL        0.4238 ****
4016 Hw         15.510000    5.920000   31.200000  H         1 MOL        0.4238 ****
4017 Ow         12.640000   17.170000   31.900000  O         1 MOL       -0.8476 ****
4018 Hw         13.480000   17.220000   31.360000  H         1 MOL        0.4238 ****
4019 Hw         12.410000   16.210000   32.080000  H         1 MOL        0.4238 ****
4020 Ow         10.130000   18.820000   32.160000  O         1 MOL       -0.8476 ****
4021 Hw          9.500000   18.100000   31.850000  H         1 MOL        0.4238 ****
4022 Hw         11.060000   18.460000   32.160000  H         1 MOL        0.4238 ****
4023 Ow         13.630000   22.690000   34.950000  O         1 MOL       -0.8476 ****
4024 Hw         13.910000   22.260000   35.800000  H         1 MOL        0.4238 ****
4025 Hw         13.880000   23.650000   34.960000  H         1 MOL        0.4238 ****
4026 Ow          8.190000   22.840000   35.270000  O         1 MOL       -0.8476 ****
4027 Hw          7.720000   22.810000   36.160000  H         1 MOL        0.4238 ****
4028 Hw          7.680000   22.290000   34.610000  H         1 MOL        0.4238 ****
4029 Ow         25.270000    9.880000   34.340000  O         1 MOL       -0.8476 ****
4030 Hw         25.670000    9.870000   33.420000  H         1 MOL        0.4238 ****
4031 Hw         25.370000   10.800000   34.740000  H         1 MOL        0.4238 ****
4032 Ow         18.530000   18.540000   30.250000  O         1 MOL       -0.8476 ****
4033 Hw         18.920000   17.690000   29.890000  H         1 MOL        0.4238 ****
4034 Hw         17.550000   18.560000   30.060000  H         1 MOL        0.4238 ****
4035 Ow         17.020000   31.970000   36.670000  O         1 MOL       -0.8476 ****
4036 Hw         17.160000   32.240000   35.720000  H         1 MOL        0.4238 ****
4037 Hw         17.850000   32.190000   37.200000  H         1 MOL        0.4238 ****
4038 Ow         17.660000   12.090000   36.500000  O         1 MOL       -0.8476 ****
4039 Hw         18.570000   11.700000   36.370000  H         1 MOL        0.4238 ****
4040 Hw         17.740000   13.050000   36.740000  H         1 MOL        0.4238 ****
4041 Ow         16.260000   29.710000   33.510000  O         1 MOL       -0.8476 ****
4042 Hw         16.860000   29.740000   34.310000  H         1 MOL        0.4238 ****
4043 Hw         15.510000   30.350000   33.640000  H         1 MOL        0.4238 ****
4044 Ow         12.920000   26.060000   27.340000  O         1 MOL       -0.8476 ****
4045 Hw         13.520000   25.250000   27.360000  H         1 MOL        0.4238 ****
4046 Hw         13.320000   26.750000   26.740000  H         1 MOL        0.4238 ****
4047 Ow         22.660000   35.930000   32.090000  O         1 MOL       -0.8476 ****
4048 Hw         23.040000   35.090000   32.460000  H         1 MOL        0.4238 ****
4049 Hw         21.780000   36.120000   32.530000  H         1 MOL        0.4238 ****
4050 Ow          6.730000   17.760000   30.150000  O         1 MOL       -0.8476 ****
4051 Hw          6.270000   18.640000   30.020000  H         1 MOL        0.4238 ****
4052 Hw          7.720000   17.880000   30.080000  H         1 MOL        0.4238 ****
4053 Ow          8.340000   26.810000   34.340000  O         1 MOL       -0.8476 ****
4054 Hw          8.740000   26.800000   33.420000  H         1 MOL        0.4238 ****
4055 Hw          8.440000   27.730000   34.740000  H         1 MOL        0.4238 ****
4056 Ow         20.220000   22.260000   33.420000  O         1 MOL       -0.8476 ****
4057 Hw         20.600000   21.670000   34.140000  H         1 MOL        0.4238 ****
4058 Hw         20.620000   22.000000   32.540000  H         1 MOL        0.4238 ****
4059 Ow         19.540000   17.710000   33.030000  O         1 MOL       -0.8476 ****
4060 Hw         20.110000   17.060000   33.530000  H         1 MOL        0.4238 ****
4061 Hw         19.380000   17.380000   32.100000  H         1 MOL        0.4238 ****
4062 Ow         18.180000   24.160000   36.590000  O         1 MOL       -0.8476 ****
4063 Hw         19.060000   24.030000   37.040000  H         1 MOL        0.4238 ****
4064 Hw         18.050000   25.130000   36.370000  H         1 MOL        0.4238 ****
4065 Ow         27.810000    6.690000   35.260000  O         1 MOL       -0.8476 ****
4066 Hw         27.010000    6.080000   35.290000  H         1 MOL        0.4238 ****
4067 Hw         28.620000    6.160000   35.020000  H         1 MOL        0.4238 ****
4068 Ow          1.250000   24.160000   36.590000  O         1 MOL       -0.8476 ****
4069 Hw          2.130000   24.030000   37.040000  H         1 MOL        0.4238 ****
4070 Hw          1.120000   25.130000   36.370000  H         1 MOL        0.4238 ****
4071 Ow         19.070000    2.710000   35.600000  O         1 MOL       -0.8476 ****
4072 Hw         18.270000    3.310000   35.470000  H         1 MOL        0.4238 ****
4073 Hw         18.970000    2.220000   36.460000  H         1 MOL        0.4238 ****
4074 Ow         13.590000   27.380000   32.960000  O         1 MOL       -0.8476 ****
4075 Hw         13.830000   26.750000   32.220000  H         1 MOL        0.4238 ****
4076 Hw         12.690000   27.780000   32.780000  H         1 MOL        0.4238 ****
4077 Ow         16.760000   12.660000   27.190000  O         1 MOL       -0.8476 ****
4078 Hw         17.750000   12.740000   27.330000  H         1 MOL        0.4238 ****
4079 Hw         16.310000   13.500000   27.500000  H         1 MOL        0.4238 ****
4080 Ow          5.810000   12.610000   32.270000  O         1 MOL       -0.8476 ****
4081 Hw          4.880000   12.540000   31.900000  H         1 MOL        0.4238 ****
4082 Hw          5.920000   13.500000   32.710000  H         1 MOL        0.4238 ****
4083 Ow         28.650000    1.930000   35.390000  O         1 MOL       -0.8476 ****
4084 Hw         28.650000    2.570000   36.160000  H         1 MOL        0.4238 ****
4085 Hw         28.930000    2.410000   34.560000  H         1 MOL        0.4238 ****
4086 Ow          2.420000   14.200000   26.000000  O         1 MOL       -0.8476 ****
4087 Hw          2.160000   15.160000   26.000000  H         1 MOL        0.4238 ****
4088 Hw          1.710000   13.660000   26.450000  H         1 MOL        0.4238 ****
4089 Ow          9.000000   15.000000   32.570000  O         1 MOL       -0.8476 ****
4090 Hw          8.770000   14.750000   31.630000  H         1 MOL        0.4238 ****
4091 Hw          9.610000   14.310000   32.960000  H         1 MOL        0.4238 ****
4092 Ow          3.470000   14.210000   31.230000  O         1 MOL       -0.8476 ****
4093 Hw          2.690000   13.900000   30.700000  H         1 MOL        0.4238 ****
4094 Hw          4.050000   14.790000   30.660000  H         1 MOL        0.4238 ****
4095 Ow         11.230000   11.810000   31.620000  O         1 MOL       -0.8476 ****
4096 Hw         10.830000   12.250000   32.430000  H         1 MOL        0.4238 ****
4097 Hw         10.820000   12.180000   30.790000  H         1 MOL        0.4238 ****
4098 Ow         23.770000   18.820000   35.510000  O         1 MOL       -0.8476 ****
4099 Hw         24.670000   18.660000   35.110000  H         1 MOL        0.4238 ****
4100 Hw         23.850000   18.870000   36.500000  H         1 MOL        0.4238 ****
4101 Ow         17.690000   32.430000   33.930000  O         1 MOL       -0.8476 ****
4102 Hw         17.230000   33.250000   33.590000  H         1 MOL        0.4238 ****
4103 Hw         18.670000   32.620000   34.020000  H         1 MOL        0.4238 ****
4104 Ow         18.270000    6.290000   26.250000  O         1 MOL       -0.8476 ****
4105 Hw         17.820000    5.410000   26.420000  H         1 MOL        0.4238 ****
4106 Hw         18.260000    6.830000   27.090000  H         1 MOL        0.4238 ****
4107 Ow          3.630000   17.870000   29.150000  O         1 MOL       -0.8476 ****
4108 Hw          4.130000   17.010000   29.210000  H         1 MOL        0.4238 ****
4109 Hw          4.280000   18.640000   29.120000  H         1 MOL        0.4238 ****
4110 Ow         17.710000   17.330000   32.160000  O         1 MOL       -0.8476 ****
4111 Hw         18.320000   17.630000   31.430000  H         1 MOL        0.4238 ****
4112 Hw         17.330000   16.440000   31.940000  H         1 MOL        0.4238 ****
@<TRIPOS>BOND
    1    13    20 1
    2    14    26 1
    3    15    32 1
    4    16    38 1
    5    53    60 1
    6    54    66 1
    7    55    72 1
    8    56    78 1
    9    93   100 1
   10    94   106 1
   11    95   112 1
   12    96   118 1
   13   133   140 1
   14   134   146 1
   15   135   152 1
   16   136   158 1
   17   173   180 1
   18   174   186 1
   19   175   192 1
   20   176   198 1
   21   213   220 1
   22   214   226 1
   23   215   232 1
   24   216   238 1
   25   253   260 1
   26   254   266 1
   27   255   272 1
   28   256   278 1
   29   293   300 1
   30   294   306 1
   31   295   312 1
   32   296   318 1
   33   333   340 1
   34   334   346 1
   35   335   352 1
   36   336   358 1
   37   373   380 1
   38   374   386 1
   39   375   392 1
   40   376   398 1
   41   413   420 1
   42   414   426 1
   43   415   432 1
   44   416   438 1
   45   453   460 1
   46   454   466 1
   47   455   472 1
   48   456   478 1
   49   493   500 1
   50   494   506 1
   51   495   512 1
   52   496   518 1
   53   533   540 1
   54   534   546 1
   55   535   552 1
   56   536   558 1
   57   573   580 1
   58   574   586 1
   59   575   592 1
   60   576   598 1
   61   613   620 1
   62   614   626 1
   63   615   632 1
   64   616   638 1
   65   653   660 1
   66   654   666 1
   67   655   672 1
   68   656   678 1
   69   693   700 1
   70   694   706 1
   71   695   712 1
   72   696   718 1
   73   733   740 1
   74   734   746 1
   75   735   752 1
   76   736   758 1
   77   773   780 1
   78   774   786 1
   79   775   792 1
   80   776   798 1
   81   813   820 1
   82   814   826 1
   83   815   832 1
   84   816   838 1
   85   853   860 1
   86   854   866 1
   87   855   872 1
   88   856   878 1
   89   893   900 1
   90   894   906 1
   91   895   912 1
   92   896   918 1
   93   933   940 1
   94   934   946 1
   95   935   952 1
   96   936   958 1
   97   973   980 1
   98   974   986 1
   99   975   992 1
  100   976   998 1
  101  1013  1020 1
  102  1014  1026 1
  103  1015  1032 1
  104  1016  1038 1
  105  1053  1060 1
  106  1054  1066 1
  107  1055  1072 1
  108  1056  1078 1
  109  1093  1100 1
  110  1094  1106 1
  111  1095  1112 1
  112  1096  1118 1
  113  1133  1140 1
  114  1134  1146 1
  115  1135  1152 1
  116  1136  1158 1
  117  1173  1180 1
  118  1174  1186 1
  119  1175  1192 1
  120  1176  1198 1
  121  1213  1220 1
  122  1214  1226 1
  123  1215  1232 1
  124  1216  1238 1
  125  1253  1260 1
  126  1254  1266 1
  127  1255  1272 1
  128  1256  1278 1
  129  1293  1300 1
  130  1294  1306 1
  131  1295  1312 1
  132  1296  1318 1
  133  1333  1340 1
  134  1334  1346 1
  135  1335  1352 1
  136  1336  1358 1
  137  1373  1380 1
  138  1374  1386 1
  139  1375  1392 1
  140  1376  1398 1
  141  1413  1420 1
  142  1414  1426 1
  143  1415  1432 1
  144  1416  1438 1
  145  1453  1460 1
  146  1454  1466 1
  147  1455  1472 1
  148  1456  1478 1
  149  1493  1500 1
  150  1494  1506 1
  151  1495  1512 1
  152  1496  1518 1
  153  1533  1540 1
  154  1534  1546 1
  155  1535  1552 1
  156  1536  1558 1
  157  1573  1580 1
  158  1574  1586 1
  159  1575  1592 1
  160  1576  1598 1
  161  1613  1620 1
  162  1614  1626 1
  163  1615  1632 1
  164  1616  1638 1
  165  1653  1660 1
  166  1654  1666 1
  167  1655  1672 1
  168  1656  1678 1
  169  1693  1700 1
  170  1694  1706 1
  171  1695  1712 1
  172  1696  1718 1
  173  1733  1740 1
  174  1734  1746 1
  175  1735  1752 1
  176  1736  1758 1
  177  1773  1780 1
  178  1774  1786 1
  179  1775  1792 1
  180  1776  1798 1
  181  1813  1820 1
  182  1814  1826 1
  183  1815  1832 1
  184  1816  1838 1
  185  1853  1860 1
  186  1854  1866 1
  187  1855  1872 1
  188  1856  1878 1
  189  1893  1900 1
  190  1894  1906 1
  191  1895  1912 1
  192  1896  1918 1
  193  1953  1954 1
  194  1953  1955 1
  195  1956  1957 1
  196  1956  1958 1
  197  1959  1960 1
  198  1959  1961 1
  199  1962  1963 1
  200  1962  1964 1
  201  1965  1966 1
  202  1965  1967 1
  203  1968  1969 1
  204  1968  1970 1
  205  1971  1972 1
  206  1971  1973 1
  207  1974  1975 1
  208  1974  1976 1
  209  1977  1978 1
  210  1977  1979 1
  211  1980  1981 1
  212  1980  1982 1
  213  1983  1984 1
  214  1983  1985 1
  215  1986  1987 1
  216  1986  1988 1
  217  1989  1990 1
  218  1989  1991 1
  219  1992  1993 1
  220  1992  1994 1
  221  1995  1996 1
  222  1995  1997 1
  223  1998  1999 1
  224  1998  2000 1
  225  2001  2002 1
  226  2001  2003 1
  227  2004  2005 1
  228  2004  2006 1
  229  2007  2008 1
  230  2007  2009 1
  231  2010  2011 1
  232  2010  2012 1
  233  2013  2014 1
  234  2013  2015 1
  235  2016  2017 1
  236  2016  2018 1
  237  2019  2020 1
  238  2019  2021 1
  239  2022  2023 1
  240  2022  2024 1
  241  2025  2026 1
  242  2025  2027 1
  243  2028  2029 1
  244  2028  2030 1
  245  2031  2032 1
  246  2031  2033 1
  247  2034  2035 1
  248  2034  2036 1
  249  2037  2038 1
  250  2037  2039 1
  251  2040  2041 1
  252  2040  2042 1
  253  2043  2044 1
  254  2043  2045 1
  255  2046  2047 1
  256  2046  2048 1
  257  2049  2050 1
  258  2049  2051 1
  259  2052  2053 1
  260  2052  2054 1
  261  2055  2056 1
  262  2055  2057 1
  263  2058  2059 1
  264  2058  2060 1
  265  2061  2062 1
  266  2061  2063 1
  267  2064  2065 1
  268  2064  2066 1
  269  2067  2068 1
  270  2067  2069 1
  271  2070  2071 1
  272  2070  2072 1
  273  2073  2074 1
  274  2073  2075 1
  275  2076  2077 1
  276  2076  2078 1
  277  2079  2080 1
  278  2079  2081 1
  279  2082  2083 1
  280  2082  2084 1
  281  2085  2086 1
  282  2085  2087 1
  283  2088  2089 1
  284  2088  2090 1
  285  2091  2092 1
  286  2091  2093 1
  287  2094  2095 1
  288  2094  2096 1
  289  2097  2098 1
  290  2097  2099 1
  291  2100  2101 1
  292  2100  2102 1
  293  2103  2104 1
  294  2103  2105 1
  295  2106  2107 1
  296  2106  2108 1
  297  2109  2110 1
  298  2109  2111 1
  299  2112  2113 1
  300  2112  2114 1
  301  2115  2116 1
  302  2115  2117 1
  303  2118  2119 1
  304  2118  2120 1
  305  2121  2122 1
  306  2121  2123 1
  307  2124  2125 1
  308  2124  2126 1
  309  2127  2128 1
  310  2127  2129 1
  311  2130  2131 1
  312  2130  2132 1
  313  2133  2134 1
  314  2133  2135 1
  315  2136  2137 1
  316  2136  2138 1
  317  2139  2140 1
  318  2139  2141 1
  319  2142  2143 1
  320  2142  2144 1
  321  2145  2146 1
  322  2145  2147 1
  323  2148  2149 1
  324  2148  2150 1
  325  2151  2152 1
  326  2151  2153 1
  327  2154  2155 1
  328  2154  2156 1
  329  2157  2158 1
  330  2157  2159 1
  331  2160  2161 1
  332  2160  2162 1
  333  2163  2164 1
  334  2163  2165 1
  335  2166  2167 1
  336  2166  2168 1
  337  2169  2170 1
  338  2169  2171 1
  339  2172  2173 1
  340  2172  2174 1
  341  2175  2176 1
  342  2175  2177 1
  343  2178  2179 1
  344  2178  2180 1
  345  2181  2182 1
  346  2181  2183 1
  347  2184  2185 1
  348  2184  2186 1
  349  2187  2188 1
  350  2187  2189 1
  351  2190  2191 1
  352  2190  2192 1
  353  2193  2194 1
  354  2193  2195 1
  355  2196  2197 1
  356  2196  2198 1
  357  2199  2200 1
  358  2199  2201 1
  359  2202  2203 1
  360  2202  2204 1
  361  2205  2206 1
  362  2205  2207 1
  363  2208  2209 1
  364  2208  2210 1
  365  2211  2212 1
  366  2211  2213 1
  367  2214  2215 1
  368  2214  2216 1
  369  2217  2218 1
  370  2217  2219 1
  371  2220  2221 1
  372  2220  2222 1
  373  2223  2224 1
  374  2223  2225 1
  375  2226  2227 1
  376  2226  2228 1
  377  2229  2230 1
  378  2229  2231 1
  379  2232  2233 1
  380  2232  2234 1
  381  2235  2236 1
  382  2235  2237 1
  383  2238  2239 1
  384  2238  2240 1
  385  2241  2242 1
  386  2241  2243 1
  387  2244  2245 1
  388  2244  2246 1
  389  2247  2248 1
  390  2247  2249 1
  391  2250  2251 1
  392  2250  2252 1
  393  2253  2254 1
  394  2253  2255 1
  395  2256  2257 1
  396  2256  2258 1
  397  2259  2260 1
  398  2259  2261 1
  399  2262  2263 1
  400  2262  2264 1
  401  2265  2266 1
  402  2265  2267 1
  403  2268  2269 1
  404  2268  2270 1
  405  2271  2272 1
  406  2271  2273 1
  407  2274  2275 1
  408  2274  2276 1
  409  2277  2278 1
  410  2277  2279 1
  411  2280  2281 1
  412  2280  2282 1
  413  2283  2284 1
  414  2283  2285 1
  415  2286  2287 1
  416  2286  2288 1
  417  2289  2290 1
  418  2289  2291 1
  419  2292  2293 1
  420  2292  2294 1
  421  2295  2296 1
  422  2295  2297 1
  423  2298  2299 1
  424  2298  2300 1
  425  2301  2302 1
  426  2301  2303 1
  427  2304  2305 1
  428  2304  2306 1
  429  2307  2308 1
  430  2307  2309 1
  431  2310  2311 1
  432  2310  2312 1
  433  2313  2314 1
  434  2313  2315 1
  435  2316  2317 1
  436  2316  2318 1
  437  2319  2320 1
  438  2319  2321 1
  439  2322  2323 1
  440  2322  2324 1
  441  2325  2326 1
  442  2325  2327 1
  443  2328  2329 1
  444  2328  2330 1
  445  2331  2332 1
  446  2331  2333 1
  447  2334  2335 1
  448  2334  2336 1
  449  2337  2338 1
  450  2337  2339 1
  451  2340  2341 1
  452  2340  2342 1
  453  2343  2344 1
  454  2343  2345 1
  455  2346  2347 1
  456  2346  2348 1
  457  2349  2350 1
  458  2349  2351 1
  459  2352  2353 1
  460  2352  2354 1
  461  2355  2356 1
  462  2355  2357 1
  463  2358  2359 1
  464  2358  2360 1
  465  2361  2362 1
  466  2361  2363 1
  467  2364  2365 1
  468  2364  2366 1
  469  2367  2368 1
  470  2367  2369 1
  471  2370  2371 1
  472  2370  2372 1
  473  2373  2374 1
  474  2373  2375 1
  475  2376  2377 1
  476  2376  2378 1
  477  2379  2380 1
  478  2379  2381 1
  479  2382  2383 1
  480  2382  2384 1
  481  2385  2386 1
  482  2385  2387 1
  483  2388  2389 1
  484  2388  2390 1
  485  2391  2392 1
  486  2391  2393 1
  487  2394  2395 1
  488  2394  2396 1
  489  2397  2398 1
  490  2397  2399 1
  491  2400  2401 1
  492  2400  2402 1
  493  2403  2404 1
  494  2403  2405 1
  495  2406  2407 1
  496  2406  2408 1
  497  2409  2410 1
  498  2409  2411 1
  499  2412  2413 1
  500  2412  2414 1
  501  2415  2416 1
  502  2415  2417 1
  503  2418  2419 1
  504  2418  2420 1
  505  2421  2422 1
  506  2421  2423 1
  507  2424  2425 1
  508  2424  2426 1
  509  2427  2428 1
  510  2427  2429 1
  511  2430  2431 1
  512  2430  2432 1
  513  2433  2434 1
  514  2433  2435 1
  515  2436  2437 1
  516  2436  2438 1
  517  2439  2440 1
  518  2439  2441 1
  519  2442  2443 1
  520  2442  2444 1
  521  2445  2446 1
  522  2445  2447 1
  523  2448  2449 1
  524  2448  2450 1
  525  2451  2452 1
  526  2451  2453 1
  527  2454  2455 1
  528  2454  2456 1
  529  2457  2458 1
  530  2457  2459 1
  531  2460  2461 1
  532  2460  2462 1
  533  2463  2464 1
  534  2463  2465 1
  535  2466  2467 1
  536  2466  2468 1
  537  2469  2470 1
  538  2469  2471 1
  539  2472  2473 1
  540  2472  2474 1
  541  2475  2476 1
  542  2475  2477 1
  543  2478  2479 1
  544  2478  2480 1
  545  2481  2482 1
  546  2481  2483 1
  547  2484  2485 1
  548  2484  2486 1
  549  2487  2488 1
  550  2487  2489 1
  551  2490  2491 1
  552  2490  2492 1
  553  2493  2494 1
  554  2493  2495 1
  555  2496  2497 1
  556  2496  2498 1
  557  2499  2500 1
  558  2499  2501 1
  559  2502  2503 1
  560  2502  2504 1
  561  2505  2506 1
  562  2505  2507 1
  563  2508  2509 1
  564  2508  2510 1
  565  2511  2512 1
  566  2511  2513 1
  567  2514  2515 1
  568  2514  2516 1
  569  2517  2518 1
  570  2517  2519 1
  571  2520  2521 1
  572  2520  2522 1
  573  2523  2524 1
  574  2523  2525 1
  575  2526  2527 1
  576  2526  2528 1
  577  2529  2530 1
  578  2529  2531 1
  579  2532  2533 1
  580  2532  2534 1
  581  2535  2536 1
  582  2535  2537 1
  583  2538  2539 1
  584  2538  2540 1
  585  2541  2542 1
  586  2541  2543 1
  587  2544  2545 1
  588  2544  2546 1
  589  2547  2548 1
  590  2547  2549 1
  591  2550  2551 1
  592  2550  2552 1
  593  2553  2554 1
  594  2553  2555 1
  595  2556  2557 1
  596  2556  2558 1
  597  2559  2560 1
  598  2559  2561 1
  599  2562  2563 1
  600  2562  2564 1
  601  2565  2566 1
  602  2565  2567 1
  603  2568  2569 1
  604  2568  2570 1
  605  2571  2572 1
  606  2571  2573 1
  607  2574  2575 1
  608  2574  2576 1
  609  2577  2578 1
  610  2577  2579 1
  611  2580  2581 1
  612  2580  2582 1
  613  2583  2584 1
  614  2583  2585 1
  615  2586  2587 1
  616  2586  2588 1
  617  2589  2590 1
  618  2589  2591 1
  619  2592  2593 1
  620  2592  2594 1
  621  2595  2596 1
  622  2595  2597 1
  623  2598  2599 1
  624  2598  2600 1
  625  2601  2602 1
  626  2601  2603 1
  627  2604  2605 1
  628  2604  2606 1
  629  2607  2608 1
  630  2607  2609 1
  631  2610  2611 1
  632  2610  2612 1
  633  2613  2614 1
  634  2613  2615 1
  635  2616  2617 1
  636  2616  2618 1
  637  2619  2620 1
  638  2619  2621 1
  639  2622  2623 1
  640  2622  2624 1
  641  2625  2626 1
  642  2625  2627 1
  643  2628  2629 1
  644  2628  2630 1
  645  2631  2632 1
  646  2631  2633 1
  647  2634  2635 1
  648  2634  2636 1
  649  2637  2638 1
  650  2637  2639 1
  651  2640  2641 1
  652  2640  2642 1
  653  2643  2644 1
  654  2643  2645 1
  655  2646  2647 1
  656  2646  2648 1
  657  2649  2650 1
  658  2649  2651 1
  659  2652  2653 1
  660  2652  2654 1
  661  2655  2656 1
  662  2655  2657 1
  663  2658  2659 1
  664  2658  2660 1
  665  2661  2662 1
  666  2661  2663 1
  667  2664  2665 1
  668  2664  2666 1
  669  2667  2668 1
  670  2667  2669 1
  671  2670  2671 1
  672  2670  2672 1
  673  2673  2674 1
  674  2673  2675 1
  675  2676  2677 1
  676  2676  2678 1
  677  2679  2680 1
  678  2679  2681 1
  679  2682  2683 1
  680  2682  2684 1
  681  2685  2686 1
  682  2685  2687 1
  683  2688  2689 1
  684  2688  2690 1
  685  2691  2692 1
  686  2691  2693 1
  687  2694  2695 1
  688  2694  2696 1
  689  2697  2698 1
  690  2697  2699 1
  691  2700  2701 1
  692  2700  2702 1
  693  2703  2704 1
  694  2703  2705 1
  695  2706  2707 1
  696  2706  2708 1
  697  2709  2710 1
  698  2709  2711 1
  699  2712  2713 1
  700  2712  2714 1
  701  2715  2716 1
  702  2715  2717 1
  703  2718  2719 1
  704  2718  2720 1
  705  2721  2722 1
  706  2721  2723 1
  707  2724  2725 1
  708  2724  2726 1
  709  2727  2728 1
  710  2727  2729 1
  711  2730  2731 1
  712  2730  2732 1
  713  2733  2734 1
  714  2733  2735 1
  715  2736  2737 1
  716  2736  2738 1
  717  2739  2740 1
  718  2739  2741 1
  719  2742  2743 1
  720  2742  2744 1
  721  2745  2746 1
  722  2745  2747 1
  723  2748  2749 1
  724  2748  2750 1
  725  2751  2752 1
  726  2751  2753 1
  727  2754  2755 1
  728  2754  2756 1
  729  2757  2758 1
  730  2757  2759 1
  731  2760  2761 1
  732  2760  2762 1
  733  2763  2764 1
  734  2763  2765 1
  735  2766  2767 1
  736  2766  2768 1
  737  2769  2770 1
  738  2769  2771 1
  739  2772  2773 1
  740  2772  2774 1
  741  2775  2776 1
  742  2775  2777 1
  743  2778  2779 1
  744  2778  2780 1
  745  2781  2782 1
  746  2781  2783 1
  747  2784  2785 1
  748  2784  2786 1
  749  2787  2788 1
  750  2787  2789 1
  751  2790  2791 1
  752  2790  2792 1
  753  2793  2794 1
  754  2793  2795 1
  755  2796  2797 1
  756  2796  2798 1
  757  2799  2800 1
  758  2799  2801 1
  759  2802  2803 1
  760  2802  2804 1
  761  2805  2806 1
  762  2805  2807 1
  763  2808  2809 1
  764  2808  2810 1
  765  2811  2812 1
  766  2811  2813 1
  767  2814  2815 1
  768  2814  2816 1
  769  2817  2818 1
  770  2817  2819 1
  771  2820  2821 1
  772  2820  2822 1
  773  2823  2824 1
  774  2823  2825 1
  775  2826  2827 1
  776  2826  2828 1
  777  2829  2830 1
  778  2829  2831 1
  779  2832  2833 1
  780  2832  2834 1
  781  2835  2836 1
  782  2835  2837 1
  783  2838  2839 1
  784  2838  2840 1
  785  2841  2842 1
  786  2841  2843 1
  787  2844  2845 1
  788  2844  2846 1
  789  2847  2848 1
  790  2847  2849 1
  791  2850  2851 1
  792  2850  2852 1
  793  2853  2854 1
  794  2853  2855 1
  795  2856  2857 1
  796  2856  2858 1
  797  2859  2860 1
  798  2859  2861 1
  799  2862  2863 1
  800  2862  2864 1
  801  2865  2866 1
  802  2865  2867 1
  803  2868  2869 1
  804  2868  2870 1
  805  2871  2872 1
  806  2871  2873 1
  807  2874  2875 1
  808  2874  2876 1
  809  2877  2878 1
  810  2877  2879 1
  811  2880  2881 1
  812  2880  2882 1
  813  2883  2884 1
  814  2883  2885 1
  815  2886  2887 1
  816  2886  2888 1
  817  2889  2890 1
  818  2889  2891 1
  819  2892  2893 1
  820  2892  2894 1
  821  2895  2896 1
  822  2895  2897 1
  823  2898  2899 1
  824  2898  2900 1
  825  2901  2902 1
  826  2901  2903 1
  827  2904  2905 1
  828  2904  2906 1
  829  2907  2908 1
  830  2907  2909 1
  831  2910  2911 1
  832  2910  2912 1
  833  2913  2914 1
  834  2913  2915 1
  835  2916  2917 1
  836  2916  2918 1
  837  2919  2920 1
  838  2919  2921 1
  839  2922  2923 1
  840  2922  2924 1
  841  2925  2926 1
  842  2925  2927 1
  843  2928  2929 1
  844  2928  2930 1
  845  2931  2932 1
  846  2931  2933 1
  847  2934  2935 1
  848  2934  2936 1
  849  2937  2938 1
  850  2937  2939 1
  851  2940  2941 1
  852  2940  2942 1
  853  2943  2944 1
  854  2943  2945 1
  855  2946  2947 1
  856  2946  2948 1
  857  2949  2950 1
  858  2949  2951 1
  859  2952  2953 1
  860  2952  2954 1
  861  2955  2956 1
  862  2955  2957 1
  863  2958  2959 1
  864  2958  2960 1
  865  2961  2962 1
  866  2961  2963 1
  867  2964  2965 1
  868  2964  2966 1
  869  2967  2968 1
  870  2967  2969 1
  871  2970  2971 1
  872  2970  2972 1
  873  2973  2974 1
  874  2973  2975 1
  875  2976  2977 1
  876  2976  2978 1
  877  2979  2980 1
  878  2979  2981 1
  879  2982  2983 1
  880  2982  2984 1
  881  2985  2986 1
  882  2985  2987 1
  883  2988  2989 1
  884  2988  2990 1
  885  2991  2992 1
  886  2991  2993 1
  887  2994  2995 1
  888  2994  2996 1
  889  2997  2998 1
  890  2997  2999 1
  891  3000  3001 1
  892  3000  3002 1
  893  3003  3004 1
  894  3003  3005 1
  895  3006  3007 1
  896  3006  3008 1
  897  3009  3010 1
  898  3009  3011 1
  899  3012  3013 1
  900  3012  3014 1
  901  3015  3016 1
  902  3015  3017 1
  903  3018  3019 1
  904  3018  3020 1
  905  3021  3022 1
  906  3021  3023 1
  907  3024  3025 1
  908  3024  3026 1
  909  3027  3028 1
  910  3027  3029 1
  911  3030  3031 1
  912  3030  3032 1
  913  3033  3034 1
  914  3033  3035 1
  915  3036  3037 1
  916  3036  3038 1
  917  3039  3040 1
  918  3039  3041 1
  919  3042  3043 1
  920  3042  3044 1
  921  3045  3046 1
  922  3045  3047 1
  923  3048  3049 1
  924  3048  3050 1
  925  3051  3052 1
  926  3051  3053 1
  927  3054  3055 1
  928  3054  3056 1
  929  3057  3058 1
  930  3057  3059 1
  931  3060  3061 1
  932  3060  3062 1
  933  3063  3064 1
  934  3063  3065 1
  935  3066  3067 1
  936  3066  3068 1
  937  3069  3070 1
  938  3069  3071 1
  939  3072  3073 1
  940  3072  3074 1
  941  3075  3076 1
  942  3075  3077 1
  943  3078  3079 1
  944  3078  3080 1
  945  3081  3082 1
  946  3081  3083 1
  947  3084  3085 1
  948  3084  3086 1
  949  3087  3088 1
  950  3087  3089 1
  951  3090  3091 1
  952  3090  3092 1
  953  3093  3094 1
  954  3093  3095 1
  955  3096  3097 1
  956  3096  3098 1
  957  3099  3100 1
  958  3099  3101 1
  959  3102  3103 1
  960  3102  3104 1
  961  3105  3106 1
  962  3105  3107 1
  963  3108  3109 1
  964  3108  3110 1
  965  3111  3112 1
  966  3111  3113 1
  967  3114  3115 1
  968  3114  3116 1
  969  3117  3118 1
  970  3117  3119 1
  971  3120  3121 1
  972  3120  3122 1
  973  3123  3124 1
  974  3123  3125 1
  975  3126  3127 1
  976  3126  3128 1
  977  3129  3130 1
  978  3129  3131 1
  979  3132  3133 1
  980  3132  3134 1
  981  3135  3136 1
  982  3135  3137 1
  983  3138  3139 1
  984  3138  3140 1
  985  3141  3142 1
  986  3141  3143 1
  987  3144  3145 1
  988  3144  3146 1
  989  3147  3148 1
  990  3147  3149 1
  991  3150  3151 1
  992  3150  3152 1
  993  3153  3154 1
  994  3153  3155 1
  995  3156  3157 1
  996  3156  3158 1
  997  3159  3160 1
  998  3159  3161 1
  999  3162  3163 1
 1000  3162  3164 1
 1001  3165  3166 1
 1002  3165  3167 1
 1003  3168  3169 1
 1004  3168  3170 1
 1005  3171  3172 1
 1006  3171  3173 1
 1007  3174  3175 1
 1008  3174  3176 1
 1009  3177  3178 1
 1010  3177  3179 1
 1011  3180  3181 1
 1012  3180  3182 1
 1013  3183  3184 1
 1014  3183  3185 1
 1015  3186  3187 1
 1016  3186  3188 1
 1017  3189  3190 1
 1018  3189  3191 1
 1019  3192  3193 1
 1020  3192  3194 1
 1021  3195  3196 1
 1022  3195  3197 1
 1023  3198  3199 1
 1024  3198  3200 1
 1025  3201  3202 1
 1026  3201  3203 1
 1027  3204  3205 1
 1028  3204  3206 1
 1029  3207  3208 1
 1030  3207  3209 1
 1031  3210  3211 1
 1032  3210  3212 1
 1033  3213  3214 1
 1034  3213  3215 1
 1035  3216  3217 1
 1036  3216  3218 1
 1037  3219  3220 1
 1038  3219  3221 1
 1039  3222  3223 1
 1040  3222  3224 1
 1041  3225  3226 1
 1042  3225  3227 1
 1043  3228  3229 1
 1044  3228  3230 1
 1045  3231  3232 1
 1046  3231  3233 1
 1047  3234  3235 1
 1048  3234  3236 1
 1049  3237  3238 1
 1050  3237  3239 1
 1051  3240  3241 1
 1052  3240  3242 1
 1053  3243  3244 1
 1054  3243  3245 1
 1055  3246  3247 1
 1056  3246  3248 1
 1057  3249  3250 1
 1058  3249  3251 1
 1059  3252  3253 1
 1060  3252  3254 1
 1061  3255  3256 1
 1062  3255  3257 1
 1063  3258  3259 1
 1064  3258  3260 1
 1065  3261  3262 1
 1066  3261  3263 1
 1067  3264  3265 1
 1068  3264  3266 1
 1069  3267  3268 1
 1070  3267  3269 1
 1071  3270  3271 1
 1072  3270  3272 1
 1073  3273  3274 1
 1074  3273  3275 1
 1075  3276  3277 1
 1076  3276  3278 1
 1077  3279  3280 1
 1078  3279  3281 1
 1079  3282  3283 1
 1080  3282  3284 1
 1081  3285  3286 1
 1082  3285  3287 1
 1083  3288  3289 1
 1084  3288  3290 1
 1085  3291  3292 1
 1086  3291  3293 1
 1087  3294  3295 1
 1088  3294  3296 1
 1089  3297  3298 1
 1090  3297  3299 1
 1091  3300  3301 1
 1092  3300  3302 1
 1093  3303  3304 1
 1094  3303  3305 1
 1095  3306  3307 1
 1096  3306  3308 1
 1097  3309  3310 1
 1098  3309  3311 1
 1099  3312  3313 1
 1100  3312  3314 1
 1101  3315  3316 1
 1102  3315  3317 1
 1103  3318  3319 1
 1104  3318  3320 1
 1105  3321  3322 1
 1106  3321  3323 1
 1107  3324  3325 1
 1108  3324  3326 1
 1109  3327  3328 1
 1110  3327  3329 1
 1111  3330  3331 1
 1112  3330  3332 1
 1113  3333  3334 1
 1114  3333  3335 1
 1115  3336  3337 1
 1116  3336  3338 1
 1117  3339  3340 1
 1118  3339  3341 1
 1119  3342  3343 1
 1120  3342  3344 1
 1121  3345  3346 1
 1122  3345  3347 1
 1123  3348  3349 1
 1124  3348  3350 1
 1125  3351  3352 1
 1126  3351  3353 1
 1127  3354  3355 1
 1128  3354  3356 1
 1129  3357  3358 1
 1130  3357  3359 1
 1131  3360  3361 1
 1132  3360  3362 1
 1133  3363  3364 1
 1134  3363  3365 1
 1135  3366  3367 1
 1136  3366  3368 1
 1137  3369  3370 1
 1138  3369  3371 1
 1139  3372  3373 1
 1140  3372  3374 1
 1141  3375  3376 1
 1142  3375  3377 1
 1143  3378  3379 1
 1144  3378  3380 1
 1145  3381  3382 1
 1146  3381  3383 1
 1147  3384  3385 1
 1148  3384  3386 1
 1149  3387  3388 1
 1150  3387  3389 1
 1151  3390  3391 1
 1152  3390  3392 1
 1153  3393  3394 1
 1154  3393  3395 1
 1155  3396  3397 1
 1156  3396  3398 1
 1157  3399  3400 1
 1158  3399  3401 1
 1159  3402  3403 1
 1160  3402  3404 1
 1161  3405  3406 1
 1162  3405  3407 1
 1163  3408  3409 1
 1164  3408  3410 1
 1165  3411  3412 1
 1166  3411  3413 1
 1167  3414  3415 1
 1168  3414  3416 1
 1169  3417  3418 1
 1170  3417  3419 1
 1171  3420  3421 1
 1172  3420  3422 1
 1173  3423  3424 1
 1174  3423  3425 1
 1175  3426  3427 1
 1176  3426  3428 1
 1177  3429  3430 1
 1178  3429  3431 1
 1179  3432  3433 1
 1180  3432  3434 1
 1181  3435  3436 1
 1182  3435  3437 1
 1183  3438  3439 1
 1184  3438  3440 1
 1185  3441  3442 1
 1186  3441  3443 1
 1187  3444  3445 1
 1188  3444  3446 1
 1189  3447  3448 1
 1190  3447  3449 1
 1191  3450  3451 1
 1192  3450  3452 1
 1193  3453  3454 1
 1194  3453  3455 1
 1195  3456  3457 1
 1196  3456  3458 1
 1197  3459  3460 1
 1198  3459  3461 1
 1199  3462  3463 1
 1200  3462  3464 1
 1201  3465  3466 1
 1202  3465  3467 1
 1203  3468  3469 1
 1204  3468  3470 1
 1205  3471  3472 1
 1206  3471  3473 1
 1207  3474  3475 1
 1208  3474  3476 1
 1209  3477  3478 1
 1210  3477  3479 1
 1211  3480  3481 1
 1212  3480  3482 1
 1213  3483  3484 1
 1214  3483  3485 1
 1215  3486  3487 1
 1216  3486  3488 1
 1217  3489  3490 1
 1218  3489  3491 1
 1219  3492  3493 1
 1220  3492  3494 1
 1221  3495  3496 1
 1222  3495  3497 1
 1223  3498  3499 1
 1224  3498  3500 1
 1225  3501  3502 1
 1226  3501  3503 1
 1227  3504  3505 1
 1228  3504  3506 1
 1229  3507  3508 1
 1230  3507  3509 1
 1231  3510  3511 1
 1232  3510  3512 1
 1233  3513  3514 1
 1234  3513  3515 1
 1235  3516  3517 1
 1236  3516  3518 1
 1237  3519  3520 1
 1238  3519  3521 1
 1239  3522  3523 1
 1240  3522  3524 1
 1241  3525  3526 1
 1242  3525  3527 1
 1243  3528  3529 1
 1244  3528  3530 1
 1245  3531  3532 1
 1246  3531  3533 1
 1247  3534  3535 1
 1248  3534  3536 1
 1249  3537  3538 1
 1250  3537  3539 1
 1251  3540  3541 1
 1252  3540  3542 1
 1253  3543  3544 1
 1254  3543  3545 1
 1255  3546  3547 1
 1256  3546  3548 1
 1257  3549  3550 1
 1258  3549  3551 1
 1259  3552  3553 1
 1260  3552  3554 1
 1261  3555  3556 1
 1262  3555  3557 1
 1263  3558  3559 1
 1264  3558  3560 1
 1265  3561  3562 1
 1266  3561  3563 1
 1267  3564  3565 1
 1268  3564  3566 1
 1269  3567  3568 1
 1270  3567  3569 1
 1271  3570  3571 1
 1272  3570  3572 1
 1273  3573  3574 1
 1274  3573  3575 1
 1275  3576  3577 1
 1276  3576  3578 1
 1277  3579  3580 1
 1278  3579  3581 1
 1279  3582  3583 1
 1280  3582  3584 1
 1281  3585  3586 1
 1282  3585  3587 1
 1283  3588  3589 1
 1284  3588  3590 1
 1285  3591  3592 1
 1286  3591  3593 1
 1287  3594  3595 1
 1288  3594  3596 1
 1289  3597  3598 1
 1290  3597  3599 1
 1291  3600  3601 1
 1292  3600  3602 1
 1293  3603  3604 1
 1294  3603  3605 1
 1295  3606  3607 1
 1296  3606  3608 1
 1297  3609  3610 1
 1298  3609  3611 1
 1299  3612  3613 1
 1300  3612  3614 1
 1301  3615  3616 1
 1302  3615  3617 1
 1303  3618  3619 1
 1304  3618  3620 1
 1305  3621  3622 1
 1306  3621  3623 1
 1307  3624  3625 1
 1308  3624  3626 1
 1309  3627  3628 1
 1310  3627  3629 1
 1311  3630  3631 1
 1312  3630  3632 1
 1313  3633  3634 1
 1314  3633  3635 1
 1315  3636  3637 1
 1316  3636  3638 1
 1317  3639  3640 1
 1318  3639  3641 1
 1319  3642  3643 1
 1320  3642  3644 1
 1321  3645  3646 1
 1322  3645  3647 1
 1323  3648  3649 1
 1324  3648  3650 1
 1325  3651  3652 1
 1326  3651  3653 1
 1327  3654  3655 1
 1328  3654  3656 1
 1329  3657  3658 1
 1330  3657  3659 1
 1331  3660  3661 1
 1332  3660  3662 1
 1333  3663  3664 1
 1334  3663  3665 1
 1335  3666  3667 1
 1336  3666  3668 1
 1337  3669  3670 1
 1338  3669  3671 1
 1339  3672  3673 1
 1340  3672  3674 1
 1341  3675  3676 1
 1342  3675  3677 1
 1343  3678  3679 1
 1344  3678  3680 1
 1345  3681  3682 1
 1346  3681  3683 1
 1347  3684  3685 1
 1348  3684  3686 1
 1349  3687  3688 1
 1350  3687  3689 1
 1351  3690  3691 1
 1352  3690  3692 1
 1353  3693  3694 1
 1354  3693  3695 1
 1355  3696  3697 1
 1356  3696  3698 1
 1357  3699  3700 1
 1358  3699  3701 1
 1359  3702  3703 1
 1360  3702  3704 1
 1361  3705  3706 1
 1362  3705  3707 1
 1363  3708  3709 1
 1364  3708  3710 1
 1365  3711  3712 1
 1366  3711  3713 1
 1367  3714  3715 1
 1368  3714  3716 1
 1369  3717  3718 1
 1370  3717  3719 1
 1371  3720  3721 1
 1372  3720  3722 1
 1373  3723  3724 1
 1374  3723  3725 1
 1375  3726  3727 1
 1376  3726  3728 1
 1377  3729  3730 1
 1378  3729  3731 1
 1379  3732  3733 1
 1380  3732  3734 1
 1381  3735  3736 1
 1382  3735  3737 1
 1383  3738  3739 1
 1384  3738  3740 1
 1385  3741  3742 1
 1386  3741  3743 1
 1387  3744  3745 1
 1388  3744  3746 1
 1389  3747  3748 1
 1390  3747  3749 1
 1391  3750  3751 1
 1392  3750  3752 1
 1393  3753  3754 1
 1394  3753  3755 1
 1395  3756  3757 1
 1396  3756  3758 1
 1397  3759  3760 1
 1398  3759  3761 1
 1399  3762  3763 1
 1400  3762  3764 1
 1401  3765  3766 1
 1402  3765  3767 1
 1403  3768  3769 1
 1404  3768  3770 1
 1405  3771  3772 1
 1406  3771  3773 1
 1407  3774  3775 1
 1408  3774  3776 1
 1409  3777  3778 1
 1410  3777  3779 1
 1411  3780  3781 1
 1412  3780  3782 1
 1413  3783  3784 1
 1414  3783  3785 1
 1415  3786  3787 1
 1416  3786  3788 1
 1417  3789  3790 1
 1418  3789  3791 1
 1419  3792  3793 1
 1420  3792  3794 1
 1421  3795  3796 1
 1422  3795  3797 1
 1423  3798  3799 1
 1424  3798  3800 1
 1425  3801  3802 1
 1426  3801  3803 1
 1427  3804  3805 1
 1428  3804  3806 1
 1429  3807  3808 1
 1430  3807  3809 1
 1431  3810  3811 1
 1432  3810  3812 1
 1433  3813  3814 1
 1434  3813  3815 1
 1435  3816  3817 1
 1436  3816  3818 1
 1437  3819  3820 1
 1438  3819  3821 1
 1439  3822  3823 1
 1440  3822  3824 1
 1441  3825  3826 1
 1442  3825  3827 1
 1443  3828  3829 1
 1444  3828  3830 1
 1445  3831  3832 1
 1446  3831  3833 1
 1447  3834  3835 1
 1448  3834  3836 1
 1449  3837  3838 1
 1450  3837  3839 1
 1451  3840  3841 1
 1452  3840  3842 1
 1453  3843  3844 1
 1454  3843  3845 1
 1455  3846  3847 1
 1456  3846  3848 1
 1457  3849  3850 1
 1458  3849  3851 1
 1459  3852  3853 1
 1460  3852  3854 1
 1461  3855  3856 1
 1462  3855  3857 1
 1463  3858  3859 1
 1464  3858  3860 1
 1465  3861  3862 1
 1466  3861  3863 1
 1467  3864  3865 1
 1468  3864  3866 1
 1469  3867  3868 1
 1470  3867  3869 1
 1471  3870  3871 1
 1472  3870  3872 1
 1473  3873  3874 1
 1474  3873  3875 1
 1475  3876  3877 1
 1476  3876  3878 1
 1477  3879  3880 1
 1478  3879  3881 1
 1479  3882  3883 1
 1480  3882  3884 1
 1481  3885  3886 1
 1482  3885  3887 1
 1483  3888  3889 1
 1484  3888  3890 1
 1485  3891  3892 1
 1486  3891  3893 1
 1487  3894  3895 1
 1488  3894  3896 1
 1489  3897  3898 1
 1490  3897  3899 1
 1491  3900  3901 1
 1492  3900  3902 1
 1493  3903  3904 1
 1494  3903  3905 1
 1495  3906  3907 1
 1496  3906  3908 1
 1497  3909  3910 1
 1498  3909  3911 1
 1499  3912  3913 1
 1500  3912  3914 1
 1501  3915  3916 1
 1502  3915  3917 1
 1503  3918  3919 1
 1504  3918  3920 1
 1505  3921  3922 1
 1506  3921  3923 1
 1507  3924  3925 1
 1508  3924  3926 1
 1509  3927  3928 1
 1510  3927  3929 1
 1511  3930  3931 1
 1512  3930  3932 1
 1513  3933  3934 1
 1514  3933  3935 1
 1515  3936  3937 1
 1516  3936  3938 1
 1517  3939  3940 1
 1518  3939  3941 1
 1519  3942  3943 1
 1520  3942  3944 1
 1521  3945  3946 1
 1522  3945  3947 1
 1523  3948  3949 1
 1524  3948  3950 1
 1525  3951  3952 1
 1526  3951  3953 1
 1527  3954  3955 1
 1528  3954  3956 1
 1529  3957  3958 1
 1530  3957  3959 1
 1531  3960  3961 1
 1532  3960  3962 1
 1533  3963  3964 1
 1534  3963  3965 1
 1535  3966  3967 1
 1536  3966  3968 1
 1537  3969  3970 1
 1538  3969  3971 1
 1539  3972  3973 1
 1540  3972  3974 1
 1541  3975  3976 1
 1542  3975  3977 1
 1543  3978  3979 1
 1544  3978  3980 1
 1545  3981  3982 1
 1546  3981  3983 1
 1547  3984  3985 1
 1548  3984  3986 1
 1549  3987  3988 1
 1550  3987  3989 1
 1551  3990  3991 1
 1552  3990  3992 1
 1553  3993  3994 1
 1554  3993  3995 1
 1555  3996  3997 1
 1556  3996  3998 1
 1557  3999  4000 1
 1558  3999  4001 1
 1559  4002  4003 1
 1560  4002  4004 1
 1561  4005  4006 1
 1562  4005  4007 1
 1563  4008  4009 1
 1564  4008  4010 1
 1565  4011  4012 1
 1566  4011  4013 1
 1567  4014  4015 1
 1568  4014  4016 1
 1569  4017  4018 1
 1570  4017  4019 1
 1571  4020  4021 1
 1572  4020  4022 1
 1573  4023  4024 1
 1574  4023  4025 1
 1575  4026  4027 1
 1576  4026  4028 1
 1577  4029  4030 1
 1578  4029  4031 1
 1579  4032  4033 1
 1580  4032  4034 1
 1581  4035  4036 1
 1582  4035  4037 1
 1583  4038  4039 1
 1584  4038  4040 1
 1585  4041  4042 1
 1586  4041  4043 1
 1587  4044  4045 1
 1588  4044  4046 1
 1589  4047  4048 1
 1590  4047  4049 1
 1591  4050  4051 1
 1592  4050  4052 1
 1593  4053  4054 1
 1594  4053  4055 1
 1595  4056  4057 1
 1596  4056  4058 1
 1597  4059  4060 1
 1598  4059  4061 1
 1599  4062  4063 1
 1600  4062  4064 1
 1601  4065  4066 1
 1602  4065  4067 1
 1603  4068  4069 1
 1604  4068  4070 1
 1605  4071  4072 1
 1606  4071  4073 1
 1607  4074  4075 1
 1608  4074  4076 1
 1609  4077  4078 1
 1610  4077  4079 1
 1611  4080  4081 1
 1612  4080  4082 1
 1613  4083  4084 1
 1614  4083  4085 1
 1615  4086  4087 1
 1616  4086  4088 1
 1617  4089  4090 1
 1618  4089  4091 1
 1619  4092  4093 1
 1620  4092  4094 1
 1621  4095  4096 1
 1622  4095  4097 1
 1623  4098  4099 1
 1624  4098  4100 1
 1625  4101  4102 1
 1626  4101  4103 1
 1627  4104  4105 1
 1628  4104  4106 1
 1629  4107  4108 1
 1630  4107  4109 1
 1631  4110  4111 1
 1632  4110  4112 1
@<TRIPOS>SUBSTRUCTURE
      1  RES              1 ****               0 ****  ****

