@<TRIPOS>MOLECULE
MMT
 1920   192     1     0     1
SMALL
USER_CHARGES
@<TRIPOS>ATOM
  1 Al          4.880000    1.920000    0.000000 Al         1 MOL        1.5750 ****
  2 Al          4.880000   -1.070000    0.000000 Al         1 MOL        1.5750 ****
  3 Al          7.520000    6.350000    0.000000 Al         1 MOL        1.5750 ****
  4 Al          7.520000    3.250000    0.000000 Al         1 MOL        1.5750 ****
  5 Si          3.120000    1.900000    2.730000 Si         1 MOL        2.1000 ****
  6 Si          0.480000    3.320000    2.730000 Si         1 MOL        2.1000 ****
  7 Si          0.480000    6.210000    2.730000 Si         1 MOL        2.1000 ****
  8 Si          3.120000    7.720000    2.730000 Si         1 MOL        2.1000 ****
  9 Si          1.360000    7.680000   -2.730000 Si         1 MOL        2.1000 ****
 10 Si          4.000000    6.250000   -2.730000 Si         1 MOL        2.1000 ****
 11 Si          4.000000    3.330000   -2.730000 Si         1 MOL        2.1000 ****
 12 Si          1.360000    1.930000   -2.730000 Si         1 MOL        2.1000 ****
 13  H          1.430000    0.550000    0.870000  H         1 MOL        0.4250 ****
 14  H          4.010000    4.510000    0.700000  H         1 MOL        0.4250 ****
 15  H          3.050000    9.150000   -0.840000  H         1 MOL        0.4250 ****
 16  H          0.510000    4.820000   -0.580000  H         1 MOL        0.4250 ****
 17  O          3.120000    0.410000    3.280000  O         1 MOL       -1.0500 ****
 18  O          1.800000    2.600000    3.280000  O         1 MOL       -1.0500 ****
 19  O          4.440000    2.650000    3.280000  O         1 MOL       -1.0500 ****
 20 Oh          0.480000    0.380000    1.060000  O         1 MOL       -0.9500 ****
 21Omg          3.120000    1.970000    1.060000  O         1 MOL       -1.1808 ****
 22Omg          0.480000    3.240000    1.060000  O         1 MOL       -1.1808 ****
 23  O          0.480000    4.780000    3.280000  O         1 MOL       -1.0500 ****
 24  O          4.440000    6.980000    3.280000  O         1 MOL       -1.0500 ****
 25  O          1.800000    6.970000    3.280000  O         1 MOL       -1.0500 ****
 26Ohmg          3.120000    4.790000    1.060000  O         1 MOL       -1.0809 ****
 27  O          0.480000    6.400000    1.060000  O         1 MOL       -1.0500 ****
 28  O          3.120000    7.640000    1.060000  O         1 MOL       -1.0500 ****
 29  O          1.360000    9.170000   -3.280000  O         1 MOL       -1.0500 ****
 30  O          2.680000    6.920000   -3.280000  O         1 MOL       -1.0500 ****
 31  O          0.040000    7.030000   -3.280000  O         1 MOL       -1.0500 ****
 32 Oh          4.000000    9.040000   -1.060000  O         1 MOL       -0.9500 ****
 33  O          1.360000    7.560000   -1.060000  O         1 MOL       -1.0500 ****
 34  O          4.000000    6.320000   -1.060000  O         1 MOL       -1.0500 ****
 35  O          4.000000    4.770000   -3.280000  O         1 MOL       -1.0500 ****
 36  O          0.040000    2.590000   -3.280000  O         1 MOL       -1.0500 ****
 37  O          2.680000    2.620000   -3.280000  O         1 MOL       -1.0500 ****
 38Ohmg          1.360000    4.800000   -1.060000  O         1 MOL       -1.0809 ****
 39Omg          4.000000    3.380000   -1.060000  O         1 MOL       -1.1808 ****
 40Omg          1.360000    2.070000   -1.060000  O         1 MOL       -1.1808 ****
 41Mgo         10.160000    1.920000    0.000000 Mg         1 MOL        1.3600 ****
 42 Al         10.160000   -1.070000    0.000000 Al         1 MOL        1.5750 ****
 43 Al         12.800000    6.350000    0.000000 Al         1 MOL        1.5750 ****
 44 Al         12.800000    3.250000    0.000000 Al         1 MOL        1.5750 ****
 45 Si          8.400000    1.900000    2.730000 Si         1 MOL        2.1000 ****
 46 Si          5.760000    3.320000    2.730000 Si         1 MOL        2.1000 ****
 47 Si          5.760000    6.210000    2.730000 Si         1 MOL        2.1000 ****
 48 Si          8.400000    7.720000    2.730000 Si         1 MOL        2.1000 ****
 49 Si          6.640000    7.680000   -2.730000 Si         1 MOL        2.1000 ****
 50 Si          9.280000    6.250000   -2.730000 Si         1 MOL        2.1000 ****
 51 Si          9.280000    3.330000   -2.730000 Si         1 MOL        2.1000 ****
 52 Si          6.640000    1.930000   -2.730000 Si         1 MOL        2.1000 ****
 53  H          6.710000    0.550000    0.870000  H         1 MOL        0.4250 ****
 54  H          9.290000    4.510000    0.700000  H         1 MOL        0.4250 ****
 55  H          8.330000    9.150000   -0.840000  H         1 MOL        0.4250 ****
 56  H          5.790000    4.820000   -0.580000  H         1 MOL        0.4250 ****
 57  O          8.400000    0.410000    3.280000  O         1 MOL       -1.0500 ****
 58  O          7.080000    2.600000    3.280000  O         1 MOL       -1.0500 ****
 59  O          9.720000    2.650000    3.280000  O         1 MOL       -1.0500 ****
 60 Oh          5.760000    0.380000    1.060000  O         1 MOL       -0.9500 ****
 61Omg          8.400000    1.970000    1.060000  O         1 MOL       -1.1808 ****
 62  O          5.760000    3.240000    1.060000  O         1 MOL       -1.0500 ****
 63  O          5.760000    4.780000    3.280000  O         1 MOL       -1.0500 ****
 64  O          9.720000    6.980000    3.280000  O         1 MOL       -1.0500 ****
 65  O          7.080000    6.970000    3.280000  O         1 MOL       -1.0500 ****
 66 Oh          8.400000    4.790000    1.060000  O         1 MOL       -0.9500 ****
 67  O          5.760000    6.400000    1.060000  O         1 MOL       -1.0500 ****
 68  O          8.400000    7.640000    1.060000  O         1 MOL       -1.0500 ****
 69  O          6.640000    9.170000   -3.280000  O         1 MOL       -1.0500 ****
 70  O          7.960000    6.920000   -3.280000  O         1 MOL       -1.0500 ****
 71  O          5.320000    7.030000   -3.280000  O         1 MOL       -1.0500 ****
 72 Oh          9.280000    9.040000   -1.060000  O         1 MOL       -0.9500 ****
 73  O          6.640000    7.560000   -1.060000  O         1 MOL       -1.0500 ****
 74  O          9.280000    6.320000   -1.060000  O         1 MOL       -1.0500 ****
 75  O          9.280000    4.770000   -3.280000  O         1 MOL       -1.0500 ****
 76  O          5.320000    2.590000   -3.280000  O         1 MOL       -1.0500 ****
 77  O          7.960000    2.620000   -3.280000  O         1 MOL       -1.0500 ****
 78 Oh          6.640000    4.800000   -1.060000  O         1 MOL       -0.9500 ****
 79Omg          9.280000    3.380000   -1.060000  O         1 MOL       -1.1808 ****
 80  O          6.640000    2.070000   -1.060000  O         1 MOL       -1.0500 ****
 81 Al         15.440000    1.920000    0.000000 Al         1 MOL        1.5750 ****
 82 Al         15.440000   -1.070000    0.000000 Al         1 MOL        1.5750 ****
 83 Al         18.080000    6.350000    0.000000 Al         1 MOL        1.5750 ****
 84 Al         18.080000    3.250000    0.000000 Al         1 MOL        1.5750 ****
 85 Si         13.680000    1.900000    2.730000 Si         1 MOL        2.1000 ****
 86 Si         11.040000    3.320000    2.730000 Si         1 MOL        2.1000 ****
 87 Si         11.040000    6.210000    2.730000 Si         1 MOL        2.1000 ****
 88 Si         13.680000    7.720000    2.730000 Si         1 MOL        2.1000 ****
 89 Si         11.920000    7.680000   -2.730000 Si         1 MOL        2.1000 ****
 90 Si         14.560000    6.250000   -2.730000 Si         1 MOL        2.1000 ****
 91 Si         14.560000    3.330000   -2.730000 Si         1 MOL        2.1000 ****
 92 Si         11.920000    1.930000   -2.730000 Si         1 MOL        2.1000 ****
 93  H         11.990000    0.550000    0.870000  H         1 MOL        0.4250 ****
 94  H         14.570000    4.510000    0.700000  H         1 MOL        0.4250 ****
 95  H         13.610000    9.150000   -0.840000  H         1 MOL        0.4250 ****
 96  H         11.070000    4.820000   -0.580000  H         1 MOL        0.4250 ****
 97  O         13.680000    0.410000    3.280000  O         1 MOL       -1.0500 ****
 98  O         12.360000    2.600000    3.280000  O         1 MOL       -1.0500 ****
 99  O         15.000000    2.650000    3.280000  O         1 MOL       -1.0500 ****
100Ohmg         11.040000    0.380000    1.060000  O         1 MOL       -1.0809 ****
101  O         13.680000    1.970000    1.060000  O         1 MOL       -1.0500 ****
102Omg         11.040000    3.240000    1.060000  O         1 MOL       -1.1808 ****
103  O         11.040000    4.780000    3.280000  O         1 MOL       -1.0500 ****
104  O         15.000000    6.980000    3.280000  O         1 MOL       -1.0500 ****
105  O         12.360000    6.970000    3.280000  O         1 MOL       -1.0500 ****
106 Oh         13.680000    4.790000    1.060000  O         1 MOL       -0.9500 ****
107  O         11.040000    6.400000    1.060000  O         1 MOL       -1.0500 ****
108Omg         13.680000    7.640000    1.060000  O         1 MOL       -1.1808 ****
109  O         11.920000    9.170000   -3.280000  O         1 MOL       -1.0500 ****
110  O         13.240000    6.920000   -3.280000  O         1 MOL       -1.0500 ****
111  O         10.600000    7.030000   -3.280000  O         1 MOL       -1.0500 ****
112Ohmg         14.560000    9.040000   -1.060000  O         1 MOL       -1.0809 ****
113  O         11.920000    7.560000   -1.060000  O         1 MOL       -1.0500 ****
114Omg         14.560000    6.320000   -1.060000  O         1 MOL       -1.1808 ****
115  O         14.560000    4.770000   -3.280000  O         1 MOL       -1.0500 ****
116  O         10.600000    2.590000   -3.280000  O         1 MOL       -1.0500 ****
117  O         13.240000    2.620000   -3.280000  O         1 MOL       -1.0500 ****
118 Oh         11.920000    4.800000   -1.060000  O         1 MOL       -0.9500 ****
119  O         14.560000    3.380000   -1.060000  O         1 MOL       -1.0500 ****
120Omg         11.920000    2.070000   -1.060000  O         1 MOL       -1.1808 ****
121 Al         20.720000    1.920000    0.000000 Al         1 MOL        1.5750 ****
122 Al         20.720000   -1.070000    0.000000 Al         1 MOL        1.5750 ****
123 Al         23.360000    6.350000    0.000000 Al         1 MOL        1.5750 ****
124 Al         23.360000    3.250000    0.000000 Al         1 MOL        1.5750 ****
125 Si         18.960000    1.900000    2.730000 Si         1 MOL        2.1000 ****
126 Si         16.320000    3.320000    2.730000 Si         1 MOL        2.1000 ****
127 Si         16.320000    6.210000    2.730000 Si         1 MOL        2.1000 ****
128 Si         18.960000    7.720000    2.730000 Si         1 MOL        2.1000 ****
129 Si         17.200000    7.680000   -2.730000 Si         1 MOL        2.1000 ****
130 Si         19.840000    6.250000   -2.730000 Si         1 MOL        2.1000 ****
131 Si         19.840000    3.330000   -2.730000 Si         1 MOL        2.1000 ****
132 Si         17.200000    1.930000   -2.730000 Si         1 MOL        2.1000 ****
133  H         17.270000    0.550000    0.870000  H         1 MOL        0.4250 ****
134  H         19.850000    4.510000    0.700000  H         1 MOL        0.4250 ****
135  H         18.890000    9.150000   -0.840000  H         1 MOL        0.4250 ****
136  H         16.350000    4.820000   -0.580000  H         1 MOL        0.4250 ****
137  O         18.960000    0.410000    3.280000  O         1 MOL       -1.0500 ****
138  O         17.640000    2.600000    3.280000  O         1 MOL       -1.0500 ****
139  O         20.280000    2.650000    3.280000  O         1 MOL       -1.0500 ****
140 Oh         16.320000    0.380000    1.060000  O         1 MOL       -0.9500 ****
141  O         18.960000    1.970000    1.060000  O         1 MOL       -1.0500 ****
142  O         16.320000    3.240000    1.060000  O         1 MOL       -1.0500 ****
143  O         16.320000    4.780000    3.280000  O         1 MOL       -1.0500 ****
144  O         20.280000    6.980000    3.280000  O         1 MOL       -1.0500 ****
145  O         17.640000    6.970000    3.280000  O         1 MOL       -1.0500 ****
146 Oh         18.960000    4.790000    1.060000  O         1 MOL       -0.9500 ****
147Omg         16.320000    6.400000    1.060000  O         1 MOL       -1.1808 ****
148  O         18.960000    7.640000    1.060000  O         1 MOL       -1.0500 ****
149  O         17.200000    9.170000   -3.280000  O         1 MOL       -1.0500 ****
150  O         18.520000    6.920000   -3.280000  O         1 MOL       -1.0500 ****
151  O         15.880000    7.030000   -3.280000  O         1 MOL       -1.0500 ****
152 Oh         19.840000    9.040000   -1.060000  O         1 MOL       -0.9500 ****
153Omg         17.200000    7.560000   -1.060000  O         1 MOL       -1.1808 ****
154  O         19.840000    6.320000   -1.060000  O         1 MOL       -1.0500 ****
155  O         19.840000    4.770000   -3.280000  O         1 MOL       -1.0500 ****
156  O         15.880000    2.590000   -3.280000  O         1 MOL       -1.0500 ****
157  O         18.520000    2.620000   -3.280000  O         1 MOL       -1.0500 ****
158 Oh         17.200000    4.800000   -1.060000  O         1 MOL       -0.9500 ****
159  O         19.840000    3.380000   -1.060000  O         1 MOL       -1.0500 ****
160  O         17.200000    2.070000   -1.060000  O         1 MOL       -1.0500 ****
161 Al         26.000000    1.920000    0.000000 Al         1 MOL        1.5750 ****
162Mgo         26.000000   -1.070000    0.000000 Mg         1 MOL        1.3600 ****
163Mgo         28.640000    6.350000    0.000000 Mg         1 MOL        1.3600 ****
164 Al         28.640000    3.250000    0.000000 Al         1 MOL        1.5750 ****
165 Si         24.240000    1.900000    2.730000 Si         1 MOL        2.1000 ****
166 Si         21.600000    3.320000    2.730000 Si         1 MOL        2.1000 ****
167 Si         21.600000    6.210000    2.730000 Si         1 MOL        2.1000 ****
168 Si         24.240000    7.720000    2.730000 Si         1 MOL        2.1000 ****
169 Si         22.480000    7.680000   -2.730000 Si         1 MOL        2.1000 ****
170 Si         25.120000    6.250000   -2.730000 Si         1 MOL        2.1000 ****
171 Si         25.120000    3.330000   -2.730000 Si         1 MOL        2.1000 ****
172 Si         22.480000    1.930000   -2.730000 Si         1 MOL        2.1000 ****
173  H         22.550000    0.550000    0.870000  H         1 MOL        0.4250 ****
174  H         25.130000    4.510000    0.700000  H         1 MOL        0.4250 ****
175  H         24.170000    9.150000   -0.840000  H         1 MOL        0.4250 ****
176  H         21.630000    4.820000   -0.580000  H         1 MOL        0.4250 ****
177  O         24.240000    0.410000    3.280000  O         1 MOL       -1.0500 ****
178  O         22.920000    2.600000    3.280000  O         1 MOL       -1.0500 ****
179  O         25.560000    2.650000    3.280000  O         1 MOL       -1.0500 ****
180 Oh         21.600000    0.380000    1.060000  O         1 MOL       -0.9500 ****
181  O         24.240000    1.970000    1.060000  O         1 MOL       -1.0500 ****
182  O         21.600000    3.240000    1.060000  O         1 MOL       -1.0500 ****
183  O         21.600000    4.780000    3.280000  O         1 MOL       -1.0500 ****
184  O         25.560000    6.980000    3.280000  O         1 MOL       -1.0500 ****
185  O         22.920000    6.970000    3.280000  O         1 MOL       -1.0500 ****
186 Oh         24.240000    4.790000    1.060000  O         1 MOL       -0.9500 ****
187  O         21.600000    6.400000    1.060000  O         1 MOL       -1.0500 ****
188  O         24.240000    7.640000    1.060000  O         1 MOL       -1.0500 ****
189  O         22.480000    9.170000   -3.280000  O         1 MOL       -1.0500 ****
190  O         23.800000    6.920000   -3.280000  O         1 MOL       -1.0500 ****
191  O         21.160000    7.030000   -3.280000  O         1 MOL       -1.0500 ****
192 Oh         25.120000    9.040000   -1.060000  O         1 MOL       -0.9500 ****
193  O         22.480000    7.560000   -1.060000  O         1 MOL       -1.0500 ****
194  O         25.120000    6.320000   -1.060000  O         1 MOL       -1.0500 ****
195  O         25.120000    4.770000   -3.280000  O         1 MOL       -1.0500 ****
196  O         21.160000    2.590000   -3.280000  O         1 MOL       -1.0500 ****
197  O         23.800000    2.620000   -3.280000  O         1 MOL       -1.0500 ****
198 Oh         22.480000    4.800000   -1.060000  O         1 MOL       -0.9500 ****
199  O         25.120000    3.380000   -1.060000  O         1 MOL       -1.0500 ****
200  O         22.480000    2.070000   -1.060000  O         1 MOL       -1.0500 ****
201 Al         31.280000    1.920000    0.000000 Al         1 MOL        1.5750 ****
202 Al         31.280000   -1.070000    0.000000 Al         1 MOL        1.5750 ****
203 Al         33.920000    6.350000    0.000000 Al         1 MOL        1.5750 ****
204Mgo         33.920000    3.250000    0.000000 Mg         1 MOL        1.3600 ****
205 Si         29.520000    1.900000    2.730000 Si         1 MOL        2.1000 ****
206 Si         26.880000    3.320000    2.730000 Si         1 MOL        2.1000 ****
207 Si         26.880000    6.210000    2.730000 Si         1 MOL        2.1000 ****
208 Si         29.520000    7.720000    2.730000 Si         1 MOL        2.1000 ****
209 Si         27.760000    7.680000   -2.730000 Si         1 MOL        2.1000 ****
210 Si         30.400000    6.250000   -2.730000 Si         1 MOL        2.1000 ****
211 Si         30.400000    3.330000   -2.730000 Si         1 MOL        2.1000 ****
212 Si         27.760000    1.930000   -2.730000 Si         1 MOL        2.1000 ****
213  H         27.830000    0.550000    0.870000  H         1 MOL        0.4250 ****
214  H         30.410000    4.510000    0.700000  H         1 MOL        0.4250 ****
215  H         29.450000    9.150000   -0.840000  H         1 MOL        0.4250 ****
216  H         26.910000    4.820000   -0.580000  H         1 MOL        0.4250 ****
217  O         29.520000    0.410000    3.280000  O         1 MOL       -1.0500 ****
218  O         28.200000    2.600000    3.280000  O         1 MOL       -1.0500 ****
219  O         30.840000    2.650000    3.280000  O         1 MOL       -1.0500 ****
220Ohmg         26.880000    0.380000    1.060000  O         1 MOL       -1.0809 ****
221  O         29.520000    1.970000    1.060000  O         1 MOL       -1.0500 ****
222  O         26.880000    3.240000    1.060000  O         1 MOL       -1.0500 ****
223  O         26.880000    4.780000    3.280000  O         1 MOL       -1.0500 ****
224  O         30.840000    6.980000    3.280000  O         1 MOL       -1.0500 ****
225  O         28.200000    6.970000    3.280000  O         1 MOL       -1.0500 ****
226Ohmg         29.520000    4.790000    1.060000  O         1 MOL       -1.0809 ****
227Omg         26.880000    6.400000    1.060000  O         1 MOL       -1.1808 ****
228Omg         29.520000    7.640000    1.060000  O         1 MOL       -1.1808 ****
229  O         27.760000    9.170000   -3.280000  O         1 MOL       -1.0500 ****
230  O         29.080000    6.920000   -3.280000  O         1 MOL       -1.0500 ****
231  O         26.440000    7.030000   -3.280000  O         1 MOL       -1.0500 ****
232 Oh         30.400000    9.040000   -1.060000  O         1 MOL       -0.9500 ****
233Omg         27.760000    7.560000   -1.060000  O         1 MOL       -1.1808 ****
234Omg         30.400000    6.320000   -1.060000  O         1 MOL       -1.1808 ****
235  O         30.400000    4.770000   -3.280000  O         1 MOL       -1.0500 ****
236  O         26.440000    2.590000   -3.280000  O         1 MOL       -1.0500 ****
237  O         29.080000    2.620000   -3.280000  O         1 MOL       -1.0500 ****
238Ohmg         27.760000    4.800000   -1.060000  O         1 MOL       -1.0809 ****
239  O         30.400000    3.380000   -1.060000  O         1 MOL       -1.0500 ****
240  O         27.760000    2.070000   -1.060000  O         1 MOL       -1.0500 ****
241 Al          4.880000   11.060000    0.000000 Al         1 MOL        1.5750 ****
242 Al          4.880000    8.070000    0.000000 Al         1 MOL        1.5750 ****
243Mgo          7.520000   15.490000    0.000000 Mg         1 MOL        1.3600 ****
244 Al          7.520000   12.390000    0.000000 Al         1 MOL        1.5750 ****
245 Si          3.120000   11.040000    2.730000 Si         1 MOL        2.1000 ****
246 Si          0.480000   12.460000    2.730000 Si         1 MOL        2.1000 ****
247 Si          0.480000   15.350000    2.730000 Si         1 MOL        2.1000 ****
248 Si          3.120000   16.860000    2.730000 Si         1 MOL        2.1000 ****
249 Si          1.360000   16.820000   -2.730000 Si         1 MOL        2.1000 ****
250 Si          4.000000   15.390000   -2.730000 Si         1 MOL        2.1000 ****
251 Si          4.000000   12.470000   -2.730000 Si         1 MOL        2.1000 ****
252 Si          1.360000   11.070000   -2.730000 Si         1 MOL        2.1000 ****
253  H          1.430000    9.690000    0.870000  H         1 MOL        0.4250 ****
254  H          4.010000   13.650000    0.700000  H         1 MOL        0.4250 ****
255  H          3.050000   18.290000   -0.840000  H         1 MOL        0.4250 ****
256  H          0.510000   13.960000   -0.580000  H         1 MOL        0.4250 ****
257  O          3.120000    9.550000    3.280000  O         1 MOL       -1.0500 ****
258  O          1.800000   11.740000    3.280000  O         1 MOL       -1.0500 ****
259  O          4.440000   11.790000    3.280000  O         1 MOL       -1.0500 ****
260 Oh          0.480000    9.520000    1.060000  O         1 MOL       -0.9500 ****
261Omg          3.120000   11.110000    1.060000  O         1 MOL       -1.1808 ****
262Omg          0.480000   12.380000    1.060000  O         1 MOL       -1.1808 ****
263  O          0.480000   13.920000    3.280000  O         1 MOL       -1.0500 ****
264  O          4.440000   16.120000    3.280000  O         1 MOL       -1.0500 ****
265  O          1.800000   16.110000    3.280000  O         1 MOL       -1.0500 ****
266Ohmg          3.120000   13.930000    1.060000  O         1 MOL       -1.0809 ****
267  O          0.480000   15.540000    1.060000  O         1 MOL       -1.0500 ****
268  O          3.120000   16.780000    1.060000  O         1 MOL       -1.0500 ****
269  O          1.360000   18.310000   -3.280000  O         1 MOL       -1.0500 ****
270  O          2.680000   16.060000   -3.280000  O         1 MOL       -1.0500 ****
271  O          0.040000   16.170000   -3.280000  O         1 MOL       -1.0500 ****
272 Oh          4.000000   18.180000   -1.060000  O         1 MOL       -0.9500 ****
273  O          1.360000   16.700000   -1.060000  O         1 MOL       -1.0500 ****
274  O          4.000000   15.460000   -1.060000  O         1 MOL       -1.0500 ****
275  O          4.000000   13.910000   -3.280000  O         1 MOL       -1.0500 ****
276  O          0.040000   11.730000   -3.280000  O         1 MOL       -1.0500 ****
277  O          2.680000   11.760000   -3.280000  O         1 MOL       -1.0500 ****
278Ohmg          1.360000   13.940000   -1.060000  O         1 MOL       -1.0809 ****
279Omg          4.000000   12.520000   -1.060000  O         1 MOL       -1.1808 ****
280Omg          1.360000   11.210000   -1.060000  O         1 MOL       -1.1808 ****
281 Al         10.160000   11.060000    0.000000 Al         1 MOL        1.5750 ****
282 Al         10.160000    8.070000    0.000000 Al         1 MOL        1.5750 ****
283 Al         12.800000   15.490000    0.000000 Al         1 MOL        1.5750 ****
284 Al         12.800000   12.390000    0.000000 Al         1 MOL        1.5750 ****
285 Si          8.400000   11.040000    2.730000 Si         1 MOL        2.1000 ****
286 Si          5.760000   12.460000    2.730000 Si         1 MOL        2.1000 ****
287 Si          5.760000   15.350000    2.730000 Si         1 MOL        2.1000 ****
288 Si          8.400000   16.860000    2.730000 Si         1 MOL        2.1000 ****
289 Si          6.640000   16.820000   -2.730000 Si         1 MOL        2.1000 ****
290 Si          9.280000   15.390000   -2.730000 Si         1 MOL        2.1000 ****
291 Si          9.280000   12.470000   -2.730000 Si         1 MOL        2.1000 ****
292 Si          6.640000   11.070000   -2.730000 Si         1 MOL        2.1000 ****
293  H          6.710000    9.690000    0.870000  H         1 MOL        0.4250 ****
294  H          9.290000   13.650000    0.700000  H         1 MOL        0.4250 ****
295  H          8.330000   18.290000   -0.840000  H         1 MOL        0.4250 ****
296  H          5.790000   13.960000   -0.580000  H         1 MOL        0.4250 ****
297  O          8.400000    9.550000    3.280000  O         1 MOL       -1.0500 ****
298  O          7.080000   11.740000    3.280000  O         1 MOL       -1.0500 ****
299  O          9.720000   11.790000    3.280000  O         1 MOL       -1.0500 ****
300 Oh          5.760000    9.520000    1.060000  O         1 MOL       -0.9500 ****
301  O          8.400000   11.110000    1.060000  O         1 MOL       -1.0500 ****
302  O          5.760000   12.380000    1.060000  O         1 MOL       -1.0500 ****
303  O          5.760000   13.920000    3.280000  O         1 MOL       -1.0500 ****
304  O          9.720000   16.120000    3.280000  O         1 MOL       -1.0500 ****
305  O          7.080000   16.110000    3.280000  O         1 MOL       -1.0500 ****
306Ohmg          8.400000   13.930000    1.060000  O         1 MOL       -1.0809 ****
307Omg          5.760000   15.540000    1.060000  O         1 MOL       -1.1808 ****
308Omg          8.400000   16.780000    1.060000  O         1 MOL       -1.1808 ****
309  O          6.640000   18.310000   -3.280000  O         1 MOL       -1.0500 ****
310  O          7.960000   16.060000   -3.280000  O         1 MOL       -1.0500 ****
311  O          5.320000   16.170000   -3.280000  O         1 MOL       -1.0500 ****
312 Oh          9.280000   18.180000   -1.060000  O         1 MOL       -0.9500 ****
313Omg          6.640000   16.700000   -1.060000  O         1 MOL       -1.1808 ****
314Omg          9.280000   15.460000   -1.060000  O         1 MOL       -1.1808 ****
315  O          9.280000   13.910000   -3.280000  O         1 MOL       -1.0500 ****
316  O          5.320000   11.730000   -3.280000  O         1 MOL       -1.0500 ****
317  O          7.960000   11.760000   -3.280000  O         1 MOL       -1.0500 ****
318Ohmg          6.640000   13.940000   -1.060000  O         1 MOL       -1.0809 ****
319  O          9.280000   12.520000   -1.060000  O         1 MOL       -1.0500 ****
320  O          6.640000   11.210000   -1.060000  O         1 MOL       -1.0500 ****
321 Al         15.440000   11.060000    0.000000 Al         1 MOL        1.5750 ****
322Mgo         15.440000    8.070000    0.000000 Mg         1 MOL        1.3600 ****
323 Al         18.080000   15.490000    0.000000 Al         1 MOL        1.5750 ****
324 Al         18.080000   12.390000    0.000000 Al         1 MOL        1.5750 ****
325 Si         13.680000   11.040000    2.730000 Si         1 MOL        2.1000 ****
326 Si         11.040000   12.460000    2.730000 Si         1 MOL        2.1000 ****
327 Si         11.040000   15.350000    2.730000 Si         1 MOL        2.1000 ****
328 Si         13.680000   16.860000    2.730000 Si         1 MOL        2.1000 ****
329 Si         11.920000   16.820000   -2.730000 Si         1 MOL        2.1000 ****
330 Si         14.560000   15.390000   -2.730000 Si         1 MOL        2.1000 ****
331 Si         14.560000   12.470000   -2.730000 Si         1 MOL        2.1000 ****
332 Si         11.920000   11.070000   -2.730000 Si         1 MOL        2.1000 ****
333  H         11.990000    9.690000    0.870000  H         1 MOL        0.4250 ****
334  H         14.570000   13.650000    0.700000  H         1 MOL        0.4250 ****
335  H         13.610000   18.290000   -0.840000  H         1 MOL        0.4250 ****
336  H         11.070000   13.960000   -0.580000  H         1 MOL        0.4250 ****
337  O         13.680000    9.550000    3.280000  O         1 MOL       -1.0500 ****
338  O         12.360000   11.740000    3.280000  O         1 MOL       -1.0500 ****
339  O         15.000000   11.790000    3.280000  O         1 MOL       -1.0500 ****
340 Oh         11.040000    9.520000    1.060000  O         1 MOL       -0.9500 ****
341  O         13.680000   11.110000    1.060000  O         1 MOL       -1.0500 ****
342  O         11.040000   12.380000    1.060000  O         1 MOL       -1.0500 ****
343  O         11.040000   13.920000    3.280000  O         1 MOL       -1.0500 ****
344  O         15.000000   16.120000    3.280000  O         1 MOL       -1.0500 ****
345  O         12.360000   16.110000    3.280000  O         1 MOL       -1.0500 ****
346 Oh         13.680000   13.930000    1.060000  O         1 MOL       -0.9500 ****
347  O         11.040000   15.540000    1.060000  O         1 MOL       -1.0500 ****
348  O         13.680000   16.780000    1.060000  O         1 MOL       -1.0500 ****
349  O         11.920000   18.310000   -3.280000  O         1 MOL       -1.0500 ****
350  O         13.240000   16.060000   -3.280000  O         1 MOL       -1.0500 ****
351  O         10.600000   16.170000   -3.280000  O         1 MOL       -1.0500 ****
352 Oh         14.560000   18.180000   -1.060000  O         1 MOL       -0.9500 ****
353  O         11.920000   16.700000   -1.060000  O         1 MOL       -1.0500 ****
354  O         14.560000   15.460000   -1.060000  O         1 MOL       -1.0500 ****
355  O         14.560000   13.910000   -3.280000  O         1 MOL       -1.0500 ****
356  O         10.600000   11.730000   -3.280000  O         1 MOL       -1.0500 ****
357  O         13.240000   11.760000   -3.280000  O         1 MOL       -1.0500 ****
358 Oh         11.920000   13.940000   -1.060000  O         1 MOL       -0.9500 ****
359  O         14.560000   12.520000   -1.060000  O         1 MOL       -1.0500 ****
360  O         11.920000   11.210000   -1.060000  O         1 MOL       -1.0500 ****
361 Al         20.720000   11.060000    0.000000 Al         1 MOL        1.5750 ****
362 Al         20.720000    8.070000    0.000000 Al         1 MOL        1.5750 ****
363Mgo         23.360000   15.490000    0.000000 Mg         1 MOL        1.3600 ****
364 Al         23.360000   12.390000    0.000000 Al         1 MOL        1.5750 ****
365 Si         18.960000   11.040000    2.730000 Si         1 MOL        2.1000 ****
366 Si         16.320000   12.460000    2.730000 Si         1 MOL        2.1000 ****
367 Si         16.320000   15.350000    2.730000 Si         1 MOL        2.1000 ****
368 Si         18.960000   16.860000    2.730000 Si         1 MOL        2.1000 ****
369 Si         17.200000   16.820000   -2.730000 Si         1 MOL        2.1000 ****
370 Si         19.840000   15.390000   -2.730000 Si         1 MOL        2.1000 ****
371 Si         19.840000   12.470000   -2.730000 Si         1 MOL        2.1000 ****
372 Si         17.200000   11.070000   -2.730000 Si         1 MOL        2.1000 ****
373  H         17.270000    9.690000    0.870000  H         1 MOL        0.4250 ****
374  H         19.850000   13.650000    0.700000  H         1 MOL        0.4250 ****
375  H         18.890000   18.290000   -0.840000  H         1 MOL        0.4250 ****
376  H         16.350000   13.960000   -0.580000  H         1 MOL        0.4250 ****
377  O         18.960000    9.550000    3.280000  O         1 MOL       -1.0500 ****
378  O         17.640000   11.740000    3.280000  O         1 MOL       -1.0500 ****
379  O         20.280000   11.790000    3.280000  O         1 MOL       -1.0500 ****
380Ohmg         16.320000    9.520000    1.060000  O         1 MOL       -1.0809 ****
381  O         18.960000   11.110000    1.060000  O         1 MOL       -1.0500 ****
382  O         16.320000   12.380000    1.060000  O         1 MOL       -1.0500 ****
383  O         16.320000   13.920000    3.280000  O         1 MOL       -1.0500 ****
384  O         20.280000   16.120000    3.280000  O         1 MOL       -1.0500 ****
385  O         17.640000   16.110000    3.280000  O         1 MOL       -1.0500 ****
386 Oh         18.960000   13.930000    1.060000  O         1 MOL       -0.9500 ****
387  O         16.320000   15.540000    1.060000  O         1 MOL       -1.0500 ****
388  O         18.960000   16.780000    1.060000  O         1 MOL       -1.0500 ****
389  O         17.200000   18.310000   -3.280000  O         1 MOL       -1.0500 ****
390  O         18.520000   16.060000   -3.280000  O         1 MOL       -1.0500 ****
391  O         15.880000   16.170000   -3.280000  O         1 MOL       -1.0500 ****
392 Oh         19.840000   18.180000   -1.060000  O         1 MOL       -0.9500 ****
393  O         17.200000   16.700000   -1.060000  O         1 MOL       -1.0500 ****
394  O         19.840000   15.460000   -1.060000  O         1 MOL       -1.0500 ****
395  O         19.840000   13.910000   -3.280000  O         1 MOL       -1.0500 ****
396  O         15.880000   11.730000   -3.280000  O         1 MOL       -1.0500 ****
397  O         18.520000   11.760000   -3.280000  O         1 MOL       -1.0500 ****
398 Oh         17.200000   13.940000   -1.060000  O         1 MOL       -0.9500 ****
399  O         19.840000   12.520000   -1.060000  O         1 MOL       -1.0500 ****
400  O         17.200000   11.210000   -1.060000  O         1 MOL       -1.0500 ****
401 Al         26.000000   11.060000    0.000000 Al         1 MOL        1.5750 ****
402 Al         26.000000    8.070000    0.000000 Al         1 MOL        1.5750 ****
403 Al         28.640000   15.490000    0.000000 Al         1 MOL        1.5750 ****
404 Al         28.640000   12.390000    0.000000 Al         1 MOL        1.5750 ****
405 Si         24.240000   11.040000    2.730000 Si         1 MOL        2.1000 ****
406 Si         21.600000   12.460000    2.730000 Si         1 MOL        2.1000 ****
407 Si         21.600000   15.350000    2.730000 Si         1 MOL        2.1000 ****
408 Si         24.240000   16.860000    2.730000 Si         1 MOL        2.1000 ****
409 Si         22.480000   16.820000   -2.730000 Si         1 MOL        2.1000 ****
410 Si         25.120000   15.390000   -2.730000 Si         1 MOL        2.1000 ****
411 Si         25.120000   12.470000   -2.730000 Si         1 MOL        2.1000 ****
412 Si         22.480000   11.070000   -2.730000 Si         1 MOL        2.1000 ****
413  H         22.550000    9.690000    0.870000  H         1 MOL        0.4250 ****
414  H         25.130000   13.650000    0.700000  H         1 MOL        0.4250 ****
415  H         24.170000   18.290000   -0.840000  H         1 MOL        0.4250 ****
416  H         21.630000   13.960000   -0.580000  H         1 MOL        0.4250 ****
417  O         24.240000    9.550000    3.280000  O         1 MOL       -1.0500 ****
418  O         22.920000   11.740000    3.280000  O         1 MOL       -1.0500 ****
419  O         25.560000   11.790000    3.280000  O         1 MOL       -1.0500 ****
420 Oh         21.600000    9.520000    1.060000  O         1 MOL       -0.9500 ****
421  O         24.240000   11.110000    1.060000  O         1 MOL       -1.0500 ****
422  O         21.600000   12.380000    1.060000  O         1 MOL       -1.0500 ****
423  O         21.600000   13.920000    3.280000  O         1 MOL       -1.0500 ****
424  O         25.560000   16.120000    3.280000  O         1 MOL       -1.0500 ****
425  O         22.920000   16.110000    3.280000  O         1 MOL       -1.0500 ****
426Ohmg         24.240000   13.930000    1.060000  O         1 MOL       -1.0809 ****
427Omg         21.600000   15.540000    1.060000  O         1 MOL       -1.1808 ****
428Omg         24.240000   16.780000    1.060000  O         1 MOL       -1.1808 ****
429  O         22.480000   18.310000   -3.280000  O         1 MOL       -1.0500 ****
430  O         23.800000   16.060000   -3.280000  O         1 MOL       -1.0500 ****
431  O         21.160000   16.170000   -3.280000  O         1 MOL       -1.0500 ****
432 Oh         25.120000   18.180000   -1.060000  O         1 MOL       -0.9500 ****
433Omg         22.480000   16.700000   -1.060000  O         1 MOL       -1.1808 ****
434Omg         25.120000   15.460000   -1.060000  O         1 MOL       -1.1808 ****
435  O         25.120000   13.910000   -3.280000  O         1 MOL       -1.0500 ****
436  O         21.160000   11.730000   -3.280000  O         1 MOL       -1.0500 ****
437  O         23.800000   11.760000   -3.280000  O         1 MOL       -1.0500 ****
438Ohmg         22.480000   13.940000   -1.060000  O         1 MOL       -1.0809 ****
439  O         25.120000   12.520000   -1.060000  O         1 MOL       -1.0500 ****
440  O         22.480000   11.210000   -1.060000  O         1 MOL       -1.0500 ****
441 Al         31.280000   11.060000    0.000000 Al         1 MOL        1.5750 ****
442 Al         31.280000    8.070000    0.000000 Al         1 MOL        1.5750 ****
443 Al         33.920000   15.490000    0.000000 Al         1 MOL        1.5750 ****
444Mgo         33.920000   12.390000    0.000000 Mg         1 MOL        1.3600 ****
445 Si         29.520000   11.040000    2.730000 Si         1 MOL        2.1000 ****
446 Si         26.880000   12.460000    2.730000 Si         1 MOL        2.1000 ****
447 Si         26.880000   15.350000    2.730000 Si         1 MOL        2.1000 ****
448 Si         29.520000   16.860000    2.730000 Si         1 MOL        2.1000 ****
449 Si         27.760000   16.820000   -2.730000 Si         1 MOL        2.1000 ****
450 Si         30.400000   15.390000   -2.730000 Si         1 MOL        2.1000 ****
451 Si         30.400000   12.470000   -2.730000 Si         1 MOL        2.1000 ****
452 Si         27.760000   11.070000   -2.730000 Si         1 MOL        2.1000 ****
453  H         27.830000    9.690000    0.870000  H         1 MOL        0.4250 ****
454  H         30.410000   13.650000    0.700000  H         1 MOL        0.4250 ****
455  H         29.450000   18.290000   -0.840000  H         1 MOL        0.4250 ****
456  H         26.910000   13.960000   -0.580000  H         1 MOL        0.4250 ****
457  O         29.520000    9.550000    3.280000  O         1 MOL       -1.0500 ****
458  O         28.200000   11.740000    3.280000  O         1 MOL       -1.0500 ****
459  O         30.840000   11.790000    3.280000  O         1 MOL       -1.0500 ****
460 Oh         26.880000    9.520000    1.060000  O         1 MOL       -0.9500 ****
461  O         29.520000   11.110000    1.060000  O         1 MOL       -1.0500 ****
462  O         26.880000   12.380000    1.060000  O         1 MOL       -1.0500 ****
463  O         26.880000   13.920000    3.280000  O         1 MOL       -1.0500 ****
464  O         30.840000   16.120000    3.280000  O         1 MOL       -1.0500 ****
465  O         28.200000   16.110000    3.280000  O         1 MOL       -1.0500 ****
466 Oh         29.520000   13.930000    1.060000  O         1 MOL       -0.9500 ****
467  O         26.880000   15.540000    1.060000  O         1 MOL       -1.0500 ****
468  O         29.520000   16.780000    1.060000  O         1 MOL       -1.0500 ****
469  O         27.760000   18.310000   -3.280000  O         1 MOL       -1.0500 ****
470  O         29.080000   16.060000   -3.280000  O         1 MOL       -1.0500 ****
471  O         26.440000   16.170000   -3.280000  O         1 MOL       -1.0500 ****
472 Oh         30.400000   18.180000   -1.060000  O         1 MOL       -0.9500 ****
473  O         27.760000   16.700000   -1.060000  O         1 MOL       -1.0500 ****
474  O         30.400000   15.460000   -1.060000  O         1 MOL       -1.0500 ****
475  O         30.400000   13.910000   -3.280000  O         1 MOL       -1.0500 ****
476  O         26.440000   11.730000   -3.280000  O         1 MOL       -1.0500 ****
477  O         29.080000   11.760000   -3.280000  O         1 MOL       -1.0500 ****
478 Oh         27.760000   13.940000   -1.060000  O         1 MOL       -0.9500 ****
479  O         30.400000   12.520000   -1.060000  O         1 MOL       -1.0500 ****
480  O         27.760000   11.210000   -1.060000  O         1 MOL       -1.0500 ****
481 Al          4.880000   20.200000    0.000000 Al         1 MOL        1.5750 ****
482 Al          4.880000   17.210000    0.000000 Al         1 MOL        1.5750 ****
483 Al          7.520000   24.630000    0.000000 Al         1 MOL        1.5750 ****
484Mgo          7.520000   21.530000    0.000000 Mg         1 MOL        1.3600 ****
485 Si          3.120000   20.180000    2.730000 Si         1 MOL        2.1000 ****
486 Si          0.480000   21.600000    2.730000 Si         1 MOL        2.1000 ****
487 Si          0.480000   24.490000    2.730000 Si         1 MOL        2.1000 ****
488 Si          3.120000   26.000000    2.730000 Si         1 MOL        2.1000 ****
489 Si          1.360000   25.960000   -2.730000 Si         1 MOL        2.1000 ****
490 Si          4.000000   24.530000   -2.730000 Si         1 MOL        2.1000 ****
491 Si          4.000000   21.610000   -2.730000 Si         1 MOL        2.1000 ****
492 Si          1.360000   20.210000   -2.730000 Si         1 MOL        2.1000 ****
493  H          1.430000   18.830000    0.870000  H         1 MOL        0.4250 ****
494  H          4.010000   22.790000    0.700000  H         1 MOL        0.4250 ****
495  H          3.050000   27.430000   -0.840000  H         1 MOL        0.4250 ****
496  H          0.510000   23.100000   -0.580000  H         1 MOL        0.4250 ****
497  O          3.120000   18.690000    3.280000  O         1 MOL       -1.0500 ****
498  O          1.800000   20.880000    3.280000  O         1 MOL       -1.0500 ****
499  O          4.440000   20.930000    3.280000  O         1 MOL       -1.0500 ****
500 Oh          0.480000   18.660000    1.060000  O         1 MOL       -0.9500 ****
501  O          3.120000   20.250000    1.060000  O         1 MOL       -1.0500 ****
502  O          0.480000   21.520000    1.060000  O         1 MOL       -1.0500 ****
503  O          0.480000   23.060000    3.280000  O         1 MOL       -1.0500 ****
504  O          4.440000   25.260000    3.280000  O         1 MOL       -1.0500 ****
505  O          1.800000   25.250000    3.280000  O         1 MOL       -1.0500 ****
506Ohmg          3.120000   23.070000    1.060000  O         1 MOL       -1.0809 ****
507Omg          0.480000   24.680000    1.060000  O         1 MOL       -1.1808 ****
508Omg          3.120000   25.920000    1.060000  O         1 MOL       -1.1808 ****
509  O          1.360000   27.450000   -3.280000  O         1 MOL       -1.0500 ****
510  O          2.680000   25.200000   -3.280000  O         1 MOL       -1.0500 ****
511  O          0.040000   25.310000   -3.280000  O         1 MOL       -1.0500 ****
512 Oh          4.000000   27.320000   -1.060000  O         1 MOL       -0.9500 ****
513Omg          1.360000   25.840000   -1.060000  O         1 MOL       -1.1808 ****
514Omg          4.000000   24.600000   -1.060000  O         1 MOL       -1.1808 ****
515  O          4.000000   23.050000   -3.280000  O         1 MOL       -1.0500 ****
516  O          0.040000   20.870000   -3.280000  O         1 MOL       -1.0500 ****
517  O          2.680000   20.900000   -3.280000  O         1 MOL       -1.0500 ****
518Ohmg          1.360000   23.080000   -1.060000  O         1 MOL       -1.0809 ****
519  O          4.000000   21.660000   -1.060000  O         1 MOL       -1.0500 ****
520  O          1.360000   20.350000   -1.060000  O         1 MOL       -1.0500 ****
521 Al         10.160000   20.200000    0.000000 Al         1 MOL        1.5750 ****
522 Al         10.160000   17.210000    0.000000 Al         1 MOL        1.5750 ****
523 Al         12.800000   24.630000    0.000000 Al         1 MOL        1.5750 ****
524 Al         12.800000   21.530000    0.000000 Al         1 MOL        1.5750 ****
525 Si          8.400000   20.180000    2.730000 Si         1 MOL        2.1000 ****
526 Si          5.760000   21.600000    2.730000 Si         1 MOL        2.1000 ****
527 Si          5.760000   24.490000    2.730000 Si         1 MOL        2.1000 ****
528 Si          8.400000   26.000000    2.730000 Si         1 MOL        2.1000 ****
529 Si          6.640000   25.960000   -2.730000 Si         1 MOL        2.1000 ****
530 Si          9.280000   24.530000   -2.730000 Si         1 MOL        2.1000 ****
531 Si          9.280000   21.610000   -2.730000 Si         1 MOL        2.1000 ****
532 Si          6.640000   20.210000   -2.730000 Si         1 MOL        2.1000 ****
533  H          6.710000   18.830000    0.870000  H         1 MOL        0.4250 ****
534  H          9.290000   22.790000    0.700000  H         1 MOL        0.4250 ****
535  H          8.330000   27.430000   -0.840000  H         1 MOL        0.4250 ****
536  H          5.790000   23.100000   -0.580000  H         1 MOL        0.4250 ****
537  O          8.400000   18.690000    3.280000  O         1 MOL       -1.0500 ****
538  O          7.080000   20.880000    3.280000  O         1 MOL       -1.0500 ****
539  O          9.720000   20.930000    3.280000  O         1 MOL       -1.0500 ****
540 Oh          5.760000   18.660000    1.060000  O         1 MOL       -0.9500 ****
541Omg          8.400000   20.250000    1.060000  O         1 MOL       -1.1808 ****
542Omg          5.760000   21.520000    1.060000  O         1 MOL       -1.1808 ****
543  O          5.760000   23.060000    3.280000  O         1 MOL       -1.0500 ****
544  O          9.720000   25.260000    3.280000  O         1 MOL       -1.0500 ****
545  O          7.080000   25.250000    3.280000  O         1 MOL       -1.0500 ****
546Ohmg          8.400000   23.070000    1.060000  O         1 MOL       -1.0809 ****
547  O          5.760000   24.680000    1.060000  O         1 MOL       -1.0500 ****
548  O          8.400000   25.920000    1.060000  O         1 MOL       -1.0500 ****
549  O          6.640000   27.450000   -3.280000  O         1 MOL       -1.0500 ****
550  O          7.960000   25.200000   -3.280000  O         1 MOL       -1.0500 ****
551  O          5.320000   25.310000   -3.280000  O         1 MOL       -1.0500 ****
552Ohmg          9.280000   27.320000   -1.060000  O         1 MOL       -1.0809 ****
553  O          6.640000   25.840000   -1.060000  O         1 MOL       -1.0500 ****
554  O          9.280000   24.600000   -1.060000  O         1 MOL       -1.0500 ****
555  O          9.280000   23.050000   -3.280000  O         1 MOL       -1.0500 ****
556  O          5.320000   20.870000   -3.280000  O         1 MOL       -1.0500 ****
557  O          7.960000   20.900000   -3.280000  O         1 MOL       -1.0500 ****
558Ohmg          6.640000   23.080000   -1.060000  O         1 MOL       -1.0809 ****
559Omg          9.280000   21.660000   -1.060000  O         1 MOL       -1.1808 ****
560Omg          6.640000   20.350000   -1.060000  O         1 MOL       -1.1808 ****
561 Al         15.440000   20.200000    0.000000 Al         1 MOL        1.5750 ****
562 Al         15.440000   17.210000    0.000000 Al         1 MOL        1.5750 ****
563 Al         18.080000   24.630000    0.000000 Al         1 MOL        1.5750 ****
564Mgo         18.080000   21.530000    0.000000 Mg         1 MOL        1.3600 ****
565 Si         13.680000   20.180000    2.730000 Si         1 MOL        2.1000 ****
566 Si         11.040000   21.600000    2.730000 Si         1 MOL        2.1000 ****
567 Si         11.040000   24.490000    2.730000 Si         1 MOL        2.1000 ****
568 Si         13.680000   26.000000    2.730000 Si         1 MOL        2.1000 ****
569 Si         11.920000   25.960000   -2.730000 Si         1 MOL        2.1000 ****
570 Si         14.560000   24.530000   -2.730000 Si         1 MOL        2.1000 ****
571 Si         14.560000   21.610000   -2.730000 Si         1 MOL        2.1000 ****
572 Si         11.920000   20.210000   -2.730000 Si         1 MOL        2.1000 ****
573  H         11.990000   18.830000    0.870000  H         1 MOL        0.4250 ****
574  H         14.570000   22.790000    0.700000  H         1 MOL        0.4250 ****
575  H         13.610000   27.430000   -0.840000  H         1 MOL        0.4250 ****
576  H         11.070000   23.100000   -0.580000  H         1 MOL        0.4250 ****
577  O         13.680000   18.690000    3.280000  O         1 MOL       -1.0500 ****
578  O         12.360000   20.880000    3.280000  O         1 MOL       -1.0500 ****
579  O         15.000000   20.930000    3.280000  O         1 MOL       -1.0500 ****
580 Oh         11.040000   18.660000    1.060000  O         1 MOL       -0.9500 ****
581  O         13.680000   20.250000    1.060000  O         1 MOL       -1.0500 ****
582  O         11.040000   21.520000    1.060000  O         1 MOL       -1.0500 ****
583  O         11.040000   23.060000    3.280000  O         1 MOL       -1.0500 ****
584  O         15.000000   25.260000    3.280000  O         1 MOL       -1.0500 ****
585  O         12.360000   25.250000    3.280000  O         1 MOL       -1.0500 ****
586 Oh         13.680000   23.070000    1.060000  O         1 MOL       -0.9500 ****
587  O         11.040000   24.680000    1.060000  O         1 MOL       -1.0500 ****
588  O         13.680000   25.920000    1.060000  O         1 MOL       -1.0500 ****
589  O         11.920000   27.450000   -3.280000  O         1 MOL       -1.0500 ****
590  O         13.240000   25.200000   -3.280000  O         1 MOL       -1.0500 ****
591  O         10.600000   25.310000   -3.280000  O         1 MOL       -1.0500 ****
592 Oh         14.560000   27.320000   -1.060000  O         1 MOL       -0.9500 ****
593  O         11.920000   25.840000   -1.060000  O         1 MOL       -1.0500 ****
594  O         14.560000   24.600000   -1.060000  O         1 MOL       -1.0500 ****
595  O         14.560000   23.050000   -3.280000  O         1 MOL       -1.0500 ****
596  O         10.600000   20.870000   -3.280000  O         1 MOL       -1.0500 ****
597  O         13.240000   20.900000   -3.280000  O         1 MOL       -1.0500 ****
598 Oh         11.920000   23.080000   -1.060000  O         1 MOL       -0.9500 ****
599  O         14.560000   21.660000   -1.060000  O         1 MOL       -1.0500 ****
600  O         11.920000   20.350000   -1.060000  O         1 MOL       -1.0500 ****
601 Al         20.720000   20.200000    0.000000 Al         1 MOL        1.5750 ****
602 Al         20.720000   17.210000    0.000000 Al         1 MOL        1.5750 ****
603 Al         23.360000   24.630000    0.000000 Al         1 MOL        1.5750 ****
604 Al         23.360000   21.530000    0.000000 Al         1 MOL        1.5750 ****
605 Si         18.960000   20.180000    2.730000 Si         1 MOL        2.1000 ****
606 Si         16.320000   21.600000    2.730000 Si         1 MOL        2.1000 ****
607 Si         16.320000   24.490000    2.730000 Si         1 MOL        2.1000 ****
608 Si         18.960000   26.000000    2.730000 Si         1 MOL        2.1000 ****
609 Si         17.200000   25.960000   -2.730000 Si         1 MOL        2.1000 ****
610 Si         19.840000   24.530000   -2.730000 Si         1 MOL        2.1000 ****
611 Si         19.840000   21.610000   -2.730000 Si         1 MOL        2.1000 ****
612 Si         17.200000   20.210000   -2.730000 Si         1 MOL        2.1000 ****
613  H         17.270000   18.830000    0.870000  H         1 MOL        0.4250 ****
614  H         19.850000   22.790000    0.700000  H         1 MOL        0.4250 ****
615  H         18.890000   27.430000   -0.840000  H         1 MOL        0.4250 ****
616  H         16.350000   23.100000   -0.580000  H         1 MOL        0.4250 ****
617  O         18.960000   18.690000    3.280000  O         1 MOL       -1.0500 ****
618  O         17.640000   20.880000    3.280000  O         1 MOL       -1.0500 ****
619  O         20.280000   20.930000    3.280000  O         1 MOL       -1.0500 ****
620 Oh         16.320000   18.660000    1.060000  O         1 MOL       -0.9500 ****
621Omg         18.960000   20.250000    1.060000  O         1 MOL       -1.1808 ****
622Omg         16.320000   21.520000    1.060000  O         1 MOL       -1.1808 ****
623  O         16.320000   23.060000    3.280000  O         1 MOL       -1.0500 ****
624  O         20.280000   25.260000    3.280000  O         1 MOL       -1.0500 ****
625  O         17.640000   25.250000    3.280000  O         1 MOL       -1.0500 ****
626Ohmg         18.960000   23.070000    1.060000  O         1 MOL       -1.0809 ****
627  O         16.320000   24.680000    1.060000  O         1 MOL       -1.0500 ****
628  O         18.960000   25.920000    1.060000  O         1 MOL       -1.0500 ****
629  O         17.200000   27.450000   -3.280000  O         1 MOL       -1.0500 ****
630  O         18.520000   25.200000   -3.280000  O         1 MOL       -1.0500 ****
631  O         15.880000   25.310000   -3.280000  O         1 MOL       -1.0500 ****
632 Oh         19.840000   27.320000   -1.060000  O         1 MOL       -0.9500 ****
633  O         17.200000   25.840000   -1.060000  O         1 MOL       -1.0500 ****
634  O         19.840000   24.600000   -1.060000  O         1 MOL       -1.0500 ****
635  O         19.840000   23.050000   -3.280000  O         1 MOL       -1.0500 ****
636  O         15.880000   20.870000   -3.280000  O         1 MOL       -1.0500 ****
637  O         18.520000   20.900000   -3.280000  O         1 MOL       -1.0500 ****
638Ohmg         17.200000   23.080000   -1.060000  O         1 MOL       -1.0809 ****
639Omg         19.840000   21.660000   -1.060000  O         1 MOL       -1.1808 ****
640Omg         17.200000   20.350000   -1.060000  O         1 MOL       -1.1808 ****
641 Al         26.000000   20.200000    0.000000 Al         1 MOL        1.5750 ****
642 Al         26.000000   17.210000    0.000000 Al         1 MOL        1.5750 ****
643 Al         28.640000   24.630000    0.000000 Al         1 MOL        1.5750 ****
644Mgo         28.640000   21.530000    0.000000 Mg         1 MOL        1.3600 ****
645 Si         24.240000   20.180000    2.730000 Si         1 MOL        2.1000 ****
646 Si         21.600000   21.600000    2.730000 Si         1 MOL        2.1000 ****
647 Si         21.600000   24.490000    2.730000 Si         1 MOL        2.1000 ****
648 Si         24.240000   26.000000    2.730000 Si         1 MOL        2.1000 ****
649 Si         22.480000   25.960000   -2.730000 Si         1 MOL        2.1000 ****
650 Si         25.120000   24.530000   -2.730000 Si         1 MOL        2.1000 ****
651 Si         25.120000   21.610000   -2.730000 Si         1 MOL        2.1000 ****
652 Si         22.480000   20.210000   -2.730000 Si         1 MOL        2.1000 ****
653  H         22.550000   18.830000    0.870000  H         1 MOL        0.4250 ****
654  H         25.130000   22.790000    0.700000  H         1 MOL        0.4250 ****
655  H         24.170000   27.430000   -0.840000  H         1 MOL        0.4250 ****
656  H         21.630000   23.100000   -0.580000  H         1 MOL        0.4250 ****
657  O         24.240000   18.690000    3.280000  O         1 MOL       -1.0500 ****
658  O         22.920000   20.880000    3.280000  O         1 MOL       -1.0500 ****
659  O         25.560000   20.930000    3.280000  O         1 MOL       -1.0500 ****
660 Oh         21.600000   18.660000    1.060000  O         1 MOL       -0.9500 ****
661  O         24.240000   20.250000    1.060000  O         1 MOL       -1.0500 ****
662  O         21.600000   21.520000    1.060000  O         1 MOL       -1.0500 ****
663  O         21.600000   23.060000    3.280000  O         1 MOL       -1.0500 ****
664  O         25.560000   25.260000    3.280000  O         1 MOL       -1.0500 ****
665  O         22.920000   25.250000    3.280000  O         1 MOL       -1.0500 ****
666 Oh         24.240000   23.070000    1.060000  O         1 MOL       -0.9500 ****
667  O         21.600000   24.680000    1.060000  O         1 MOL       -1.0500 ****
668  O         24.240000   25.920000    1.060000  O         1 MOL       -1.0500 ****
669  O         22.480000   27.450000   -3.280000  O         1 MOL       -1.0500 ****
670  O         23.800000   25.200000   -3.280000  O         1 MOL       -1.0500 ****
671  O         21.160000   25.310000   -3.280000  O         1 MOL       -1.0500 ****
672Ohmg         25.120000   27.320000   -1.060000  O         1 MOL       -1.0809 ****
673  O         22.480000   25.840000   -1.060000  O         1 MOL       -1.0500 ****
674  O         25.120000   24.600000   -1.060000  O         1 MOL       -1.0500 ****
675  O         25.120000   23.050000   -3.280000  O         1 MOL       -1.0500 ****
676  O         21.160000   20.870000   -3.280000  O         1 MOL       -1.0500 ****
677  O         23.800000   20.900000   -3.280000  O         1 MOL       -1.0500 ****
678 Oh         22.480000   23.080000   -1.060000  O         1 MOL       -0.9500 ****
679  O         25.120000   21.660000   -1.060000  O         1 MOL       -1.0500 ****
680  O         22.480000   20.350000   -1.060000  O         1 MOL       -1.0500 ****
681 Al         31.280000   20.200000    0.000000 Al         1 MOL        1.5750 ****
682 Al         31.280000   17.210000    0.000000 Al         1 MOL        1.5750 ****
683Mgo         33.920000   24.630000    0.000000 Mg         1 MOL        1.3600 ****
684 Al         33.920000   21.530000    0.000000 Al         1 MOL        1.5750 ****
685 Si         29.520000   20.180000    2.730000 Si         1 MOL        2.1000 ****
686 Si         26.880000   21.600000    2.730000 Si         1 MOL        2.1000 ****
687 Si         26.880000   24.490000    2.730000 Si         1 MOL        2.1000 ****
688 Si         29.520000   26.000000    2.730000 Si         1 MOL        2.1000 ****
689 Si         27.760000   25.960000   -2.730000 Si         1 MOL        2.1000 ****
690 Si         30.400000   24.530000   -2.730000 Si         1 MOL        2.1000 ****
691 Si         30.400000   21.610000   -2.730000 Si         1 MOL        2.1000 ****
692 Si         27.760000   20.210000   -2.730000 Si         1 MOL        2.1000 ****
693  H         27.830000   18.830000    0.870000  H         1 MOL        0.4250 ****
694  H         30.410000   22.790000    0.700000  H         1 MOL        0.4250 ****
695  H         29.450000   27.430000   -0.840000  H         1 MOL        0.4250 ****
696  H         26.910000   23.100000   -0.580000  H         1 MOL        0.4250 ****
697  O         29.520000   18.690000    3.280000  O         1 MOL       -1.0500 ****
698  O         28.200000   20.880000    3.280000  O         1 MOL       -1.0500 ****
699  O         30.840000   20.930000    3.280000  O         1 MOL       -1.0500 ****
700 Oh         26.880000   18.660000    1.060000  O         1 MOL       -0.9500 ****
701Omg         29.520000   20.250000    1.060000  O         1 MOL       -1.1808 ****
702Omg         26.880000   21.520000    1.060000  O         1 MOL       -1.1808 ****
703  O         26.880000   23.060000    3.280000  O         1 MOL       -1.0500 ****
704  O         30.840000   25.260000    3.280000  O         1 MOL       -1.0500 ****
705  O         28.200000   25.250000    3.280000  O         1 MOL       -1.0500 ****
706Ohmg         29.520000   23.070000    1.060000  O         1 MOL       -1.0809 ****
707  O         26.880000   24.680000    1.060000  O         1 MOL       -1.0500 ****
708  O         29.520000   25.920000    1.060000  O         1 MOL       -1.0500 ****
709  O         27.760000   27.450000   -3.280000  O         1 MOL       -1.0500 ****
710  O         29.080000   25.200000   -3.280000  O         1 MOL       -1.0500 ****
711  O         26.440000   25.310000   -3.280000  O         1 MOL       -1.0500 ****
712 Oh         30.400000   27.320000   -1.060000  O         1 MOL       -0.9500 ****
713  O         27.760000   25.840000   -1.060000  O         1 MOL       -1.0500 ****
714  O         30.400000   24.600000   -1.060000  O         1 MOL       -1.0500 ****
715  O         30.400000   23.050000   -3.280000  O         1 MOL       -1.0500 ****
716  O         26.440000   20.870000   -3.280000  O         1 MOL       -1.0500 ****
717  O         29.080000   20.900000   -3.280000  O         1 MOL       -1.0500 ****
718Ohmg         27.760000   23.080000   -1.060000  O         1 MOL       -1.0809 ****
719Omg         30.400000   21.660000   -1.060000  O         1 MOL       -1.1808 ****
720Omg         27.760000   20.350000   -1.060000  O         1 MOL       -1.1808 ****
721 Al          4.880000   29.340000    0.000000 Al         1 MOL        1.5750 ****
722 Al          4.880000   26.350000    0.000000 Al         1 MOL        1.5750 ****
723 Al          7.520000   33.770000    0.000000 Al         1 MOL        1.5750 ****
724 Al          7.520000   30.670000    0.000000 Al         1 MOL        1.5750 ****
725 Si          3.120000   29.320000    2.730000 Si         1 MOL        2.1000 ****
726 Si          0.480000   30.740000    2.730000 Si         1 MOL        2.1000 ****
727 Si          0.480000   33.630000    2.730000 Si         1 MOL        2.1000 ****
728 Si          3.120000   35.140000    2.730000 Si         1 MOL        2.1000 ****
729 Si          1.360000   35.100000   -2.730000 Si         1 MOL        2.1000 ****
730 Si          4.000000   33.670000   -2.730000 Si         1 MOL        2.1000 ****
731 Si          4.000000   30.750000   -2.730000 Si         1 MOL        2.1000 ****
732 Si          1.360000   29.350000   -2.730000 Si         1 MOL        2.1000 ****
733  H          1.430000   27.970000    0.870000  H         1 MOL        0.4250 ****
734  H          4.010000   31.930000    0.700000  H         1 MOL        0.4250 ****
735  H          3.050000   36.570000   -0.840000  H         1 MOL        0.4250 ****
736  H          0.510000   32.240000   -0.580000  H         1 MOL        0.4250 ****
737  O          3.120000   27.830000    3.280000  O         1 MOL       -1.0500 ****
738  O          1.800000   30.020000    3.280000  O         1 MOL       -1.0500 ****
739  O          4.440000   30.070000    3.280000  O         1 MOL       -1.0500 ****
740 Oh          0.480000   27.800000    1.060000  O         1 MOL       -0.9500 ****
741Omg          3.120000   29.390000    1.060000  O         1 MOL       -1.1808 ****
742Omg          0.480000   30.660000    1.060000  O         1 MOL       -1.1808 ****
743  O          0.480000   32.200000    3.280000  O         1 MOL       -1.0500 ****
744  O          4.440000   34.400000    3.280000  O         1 MOL       -1.0500 ****
745  O          1.800000   34.390000    3.280000  O         1 MOL       -1.0500 ****
746Ohmg          3.120000   32.210000    1.060000  O         1 MOL       -1.0809 ****
747  O          0.480000   33.820000    1.060000  O         1 MOL       -1.0500 ****
748  O          3.120000   35.060000    1.060000  O         1 MOL       -1.0500 ****
749  O          1.360000   36.590000   -3.280000  O         1 MOL       -1.0500 ****
750  O          2.680000   34.340000   -3.280000  O         1 MOL       -1.0500 ****
751  O          0.040000   34.450000   -3.280000  O         1 MOL       -1.0500 ****
752 Oh          4.000000   36.460000   -1.060000  O         1 MOL       -0.9500 ****
753  O          1.360000   34.980000   -1.060000  O         1 MOL       -1.0500 ****
754  O          4.000000   33.740000   -1.060000  O         1 MOL       -1.0500 ****
755  O          4.000000   32.190000   -3.280000  O         1 MOL       -1.0500 ****
756  O          0.040000   30.010000   -3.280000  O         1 MOL       -1.0500 ****
757  O          2.680000   30.040000   -3.280000  O         1 MOL       -1.0500 ****
758Ohmg          1.360000   32.220000   -1.060000  O         1 MOL       -1.0809 ****
759Omg          4.000000   30.800000   -1.060000  O         1 MOL       -1.1808 ****
760Omg          1.360000   29.490000   -1.060000  O         1 MOL       -1.1808 ****
761Mgo         10.160000   29.340000    0.000000 Mg         1 MOL        1.3600 ****
762 Al         10.160000   26.350000    0.000000 Al         1 MOL        1.5750 ****
763 Al         12.800000   33.770000    0.000000 Al         1 MOL        1.5750 ****
764 Al         12.800000   30.670000    0.000000 Al         1 MOL        1.5750 ****
765 Si          8.400000   29.320000    2.730000 Si         1 MOL        2.1000 ****
766 Si          5.760000   30.740000    2.730000 Si         1 MOL        2.1000 ****
767 Si          5.760000   33.630000    2.730000 Si         1 MOL        2.1000 ****
768 Si          8.400000   35.140000    2.730000 Si         1 MOL        2.1000 ****
769 Si          6.640000   35.100000   -2.730000 Si         1 MOL        2.1000 ****
770 Si          9.280000   33.670000   -2.730000 Si         1 MOL        2.1000 ****
771 Si          9.280000   30.750000   -2.730000 Si         1 MOL        2.1000 ****
772 Si          6.640000   29.350000   -2.730000 Si         1 MOL        2.1000 ****
773  H          6.710000   27.970000    0.870000  H         1 MOL        0.4250 ****
774  H          9.290000   31.930000    0.700000  H         1 MOL        0.4250 ****
775  H          8.330000   36.570000   -0.840000  H         1 MOL        0.4250 ****
776  H          5.790000   32.240000   -0.580000  H         1 MOL        0.4250 ****
777  O          8.400000   27.830000    3.280000  O         1 MOL       -1.0500 ****
778  O          7.080000   30.020000    3.280000  O         1 MOL       -1.0500 ****
779  O          9.720000   30.070000    3.280000  O         1 MOL       -1.0500 ****
780 Oh          5.760000   27.800000    1.060000  O         1 MOL       -0.9500 ****
781Omg          8.400000   29.390000    1.060000  O         1 MOL       -1.1808 ****
782  O          5.760000   30.660000    1.060000  O         1 MOL       -1.0500 ****
783  O          5.760000   32.200000    3.280000  O         1 MOL       -1.0500 ****
784  O          9.720000   34.400000    3.280000  O         1 MOL       -1.0500 ****
785  O          7.080000   34.390000    3.280000  O         1 MOL       -1.0500 ****
786 Oh          8.400000   32.210000    1.060000  O         1 MOL       -0.9500 ****
787  O          5.760000   33.820000    1.060000  O         1 MOL       -1.0500 ****
788  O          8.400000   35.060000    1.060000  O         1 MOL       -1.0500 ****
789  O          6.640000   36.590000   -3.280000  O         1 MOL       -1.0500 ****
790  O          7.960000   34.340000   -3.280000  O         1 MOL       -1.0500 ****
791  O          5.320000   34.450000   -3.280000  O         1 MOL       -1.0500 ****
792Ohmg          9.280000   36.460000   -1.060000  O         1 MOL       -1.0809 ****
793  O          6.640000   34.980000   -1.060000  O         1 MOL       -1.0500 ****
794  O          9.280000   33.740000   -1.060000  O         1 MOL       -1.0500 ****
795  O          9.280000   32.190000   -3.280000  O         1 MOL       -1.0500 ****
796  O          5.320000   30.010000   -3.280000  O         1 MOL       -1.0500 ****
797  O          7.960000   30.040000   -3.280000  O         1 MOL       -1.0500 ****
798 Oh          6.640000   32.220000   -1.060000  O         1 MOL       -0.9500 ****
799Omg          9.280000   30.800000   -1.060000  O         1 MOL       -1.1808 ****
800  O          6.640000   29.490000   -1.060000  O         1 MOL       -1.0500 ****
801 Al         15.440000   29.340000    0.000000 Al         1 MOL        1.5750 ****
802 Al         15.440000   26.350000    0.000000 Al         1 MOL        1.5750 ****
803Mgo         18.080000   33.770000    0.000000 Mg         1 MOL        1.3600 ****
804 Al         18.080000   30.670000    0.000000 Al         1 MOL        1.5750 ****
805 Si         13.680000   29.320000    2.730000 Si         1 MOL        2.1000 ****
806 Si         11.040000   30.740000    2.730000 Si         1 MOL        2.1000 ****
807 Si         11.040000   33.630000    2.730000 Si         1 MOL        2.1000 ****
808 Si         13.680000   35.140000    2.730000 Si         1 MOL        2.1000 ****
809 Si         11.920000   35.100000   -2.730000 Si         1 MOL        2.1000 ****
810 Si         14.560000   33.670000   -2.730000 Si         1 MOL        2.1000 ****
811 Si         14.560000   30.750000   -2.730000 Si         1 MOL        2.1000 ****
812 Si         11.920000   29.350000   -2.730000 Si         1 MOL        2.1000 ****
813  H         11.990000   27.970000    0.870000  H         1 MOL        0.4250 ****
814  H         14.570000   31.930000    0.700000  H         1 MOL        0.4250 ****
815  H         13.610000   36.570000   -0.840000  H         1 MOL        0.4250 ****
816  H         11.070000   32.240000   -0.580000  H         1 MOL        0.4250 ****
817  O         13.680000   27.830000    3.280000  O         1 MOL       -1.0500 ****
818  O         12.360000   30.020000    3.280000  O         1 MOL       -1.0500 ****
819  O         15.000000   30.070000    3.280000  O         1 MOL       -1.0500 ****
820Ohmg         11.040000   27.800000    1.060000  O         1 MOL       -1.0809 ****
821  O         13.680000   29.390000    1.060000  O         1 MOL       -1.0500 ****
822Omg         11.040000   30.660000    1.060000  O         1 MOL       -1.1808 ****
823  O         11.040000   32.200000    3.280000  O         1 MOL       -1.0500 ****
824  O         15.000000   34.400000    3.280000  O         1 MOL       -1.0500 ****
825  O         12.360000   34.390000    3.280000  O         1 MOL       -1.0500 ****
826 Oh         13.680000   32.210000    1.060000  O         1 MOL       -0.9500 ****
827  O         11.040000   33.820000    1.060000  O         1 MOL       -1.0500 ****
828  O         13.680000   35.060000    1.060000  O         1 MOL       -1.0500 ****
829  O         11.920000   36.590000   -3.280000  O         1 MOL       -1.0500 ****
830  O         13.240000   34.340000   -3.280000  O         1 MOL       -1.0500 ****
831  O         10.600000   34.450000   -3.280000  O         1 MOL       -1.0500 ****
832 Oh         14.560000   36.460000   -1.060000  O         1 MOL       -0.9500 ****
833  O         11.920000   34.980000   -1.060000  O         1 MOL       -1.0500 ****
834  O         14.560000   33.740000   -1.060000  O         1 MOL       -1.0500 ****
835  O         14.560000   32.190000   -3.280000  O         1 MOL       -1.0500 ****
836  O         10.600000   30.010000   -3.280000  O         1 MOL       -1.0500 ****
837  O         13.240000   30.040000   -3.280000  O         1 MOL       -1.0500 ****
838 Oh         11.920000   32.220000   -1.060000  O         1 MOL       -0.9500 ****
839  O         14.560000   30.800000   -1.060000  O         1 MOL       -1.0500 ****
840Omg         11.920000   29.490000   -1.060000  O         1 MOL       -1.1808 ****
841 Al         20.720000   29.340000    0.000000 Al         1 MOL        1.5750 ****
842 Al         20.720000   26.350000    0.000000 Al         1 MOL        1.5750 ****
843 Al         23.360000   33.770000    0.000000 Al         1 MOL        1.5750 ****
844 Al         23.360000   30.670000    0.000000 Al         1 MOL        1.5750 ****
845 Si         18.960000   29.320000    2.730000 Si         1 MOL        2.1000 ****
846 Si         16.320000   30.740000    2.730000 Si         1 MOL        2.1000 ****
847 Si         16.320000   33.630000    2.730000 Si         1 MOL        2.1000 ****
848 Si         18.960000   35.140000    2.730000 Si         1 MOL        2.1000 ****
849 Si         17.200000   35.100000   -2.730000 Si         1 MOL        2.1000 ****
850 Si         19.840000   33.670000   -2.730000 Si         1 MOL        2.1000 ****
851 Si         19.840000   30.750000   -2.730000 Si         1 MOL        2.1000 ****
852 Si         17.200000   29.350000   -2.730000 Si         1 MOL        2.1000 ****
853  H         17.270000   27.970000    0.870000  H         1 MOL        0.4250 ****
854  H         19.850000   31.930000    0.700000  H         1 MOL        0.4250 ****
855  H         18.890000   36.570000   -0.840000  H         1 MOL        0.4250 ****
856  H         16.350000   32.240000   -0.580000  H         1 MOL        0.4250 ****
857  O         18.960000   27.830000    3.280000  O         1 MOL       -1.0500 ****
858  O         17.640000   30.020000    3.280000  O         1 MOL       -1.0500 ****
859  O         20.280000   30.070000    3.280000  O         1 MOL       -1.0500 ****
860 Oh         16.320000   27.800000    1.060000  O         1 MOL       -0.9500 ****
861  O         18.960000   29.390000    1.060000  O         1 MOL       -1.0500 ****
862  O         16.320000   30.660000    1.060000  O         1 MOL       -1.0500 ****
863  O         16.320000   32.200000    3.280000  O         1 MOL       -1.0500 ****
864  O         20.280000   34.400000    3.280000  O         1 MOL       -1.0500 ****
865  O         17.640000   34.390000    3.280000  O         1 MOL       -1.0500 ****
866Ohmg         18.960000   32.210000    1.060000  O         1 MOL       -1.0809 ****
867Omg         16.320000   33.820000    1.060000  O         1 MOL       -1.1808 ****
868Omg         18.960000   35.060000    1.060000  O         1 MOL       -1.1808 ****
869  O         17.200000   36.590000   -3.280000  O         1 MOL       -1.0500 ****
870  O         18.520000   34.340000   -3.280000  O         1 MOL       -1.0500 ****
871  O         15.880000   34.450000   -3.280000  O         1 MOL       -1.0500 ****
872 Oh         19.840000   36.460000   -1.060000  O         1 MOL       -0.9500 ****
873Omg         17.200000   34.980000   -1.060000  O         1 MOL       -1.1808 ****
874Omg         19.840000   33.740000   -1.060000  O         1 MOL       -1.1808 ****
875  O         19.840000   32.190000   -3.280000  O         1 MOL       -1.0500 ****
876  O         15.880000   30.010000   -3.280000  O         1 MOL       -1.0500 ****
877  O         18.520000   30.040000   -3.280000  O         1 MOL       -1.0500 ****
878Ohmg         17.200000   32.220000   -1.060000  O         1 MOL       -1.0809 ****
879  O         19.840000   30.800000   -1.060000  O         1 MOL       -1.0500 ****
880  O         17.200000   29.490000   -1.060000  O         1 MOL       -1.0500 ****
881Mgo         26.000000   29.340000    0.000000 Mg         1 MOL        1.3600 ****
882 Al         26.000000   26.350000    0.000000 Al         1 MOL        1.5750 ****
883 Al         28.640000   33.770000    0.000000 Al         1 MOL        1.5750 ****
884 Al         28.640000   30.670000    0.000000 Al         1 MOL        1.5750 ****
885 Si         24.240000   29.320000    2.730000 Si         1 MOL        2.1000 ****
886 Si         21.600000   30.740000    2.730000 Si         1 MOL        2.1000 ****
887 Si         21.600000   33.630000    2.730000 Si         1 MOL        2.1000 ****
888 Si         24.240000   35.140000    2.730000 Si         1 MOL        2.1000 ****
889 Si         22.480000   35.100000   -2.730000 Si         1 MOL        2.1000 ****
890 Si         25.120000   33.670000   -2.730000 Si         1 MOL        2.1000 ****
891 Si         25.120000   30.750000   -2.730000 Si         1 MOL        2.1000 ****
892 Si         22.480000   29.350000   -2.730000 Si         1 MOL        2.1000 ****
893  H         22.550000   27.970000    0.870000  H         1 MOL        0.4250 ****
894  H         25.130000   31.930000    0.700000  H         1 MOL        0.4250 ****
895  H         24.170000   36.570000   -0.840000  H         1 MOL        0.4250 ****
896  H         21.630000   32.240000   -0.580000  H         1 MOL        0.4250 ****
897  O         24.240000   27.830000    3.280000  O         1 MOL       -1.0500 ****
898  O         22.920000   30.020000    3.280000  O         1 MOL       -1.0500 ****
899  O         25.560000   30.070000    3.280000  O         1 MOL       -1.0500 ****
900 Oh         21.600000   27.800000    1.060000  O         1 MOL       -0.9500 ****
901Omg         24.240000   29.390000    1.060000  O         1 MOL       -1.1808 ****
902  O         21.600000   30.660000    1.060000  O         1 MOL       -1.0500 ****
903  O         21.600000   32.200000    3.280000  O         1 MOL       -1.0500 ****
904  O         25.560000   34.400000    3.280000  O         1 MOL       -1.0500 ****
905  O         22.920000   34.390000    3.280000  O         1 MOL       -1.0500 ****
906 Oh         24.240000   32.210000    1.060000  O         1 MOL       -0.9500 ****
907  O         21.600000   33.820000    1.060000  O         1 MOL       -1.0500 ****
908Omg         24.240000   35.060000    1.060000  O         1 MOL       -1.1808 ****
909  O         22.480000   36.590000   -3.280000  O         1 MOL       -1.0500 ****
910  O         23.800000   34.340000   -3.280000  O         1 MOL       -1.0500 ****
911  O         21.160000   34.450000   -3.280000  O         1 MOL       -1.0500 ****
912Ohmg         25.120000   36.460000   -1.060000  O         1 MOL       -1.0809 ****
913  O         22.480000   34.980000   -1.060000  O         1 MOL       -1.0500 ****
914Omg         25.120000   33.740000   -1.060000  O         1 MOL       -1.1808 ****
915  O         25.120000   32.190000   -3.280000  O         1 MOL       -1.0500 ****
916  O         21.160000   30.010000   -3.280000  O         1 MOL       -1.0500 ****
917  O         23.800000   30.040000   -3.280000  O         1 MOL       -1.0500 ****
918 Oh         22.480000   32.220000   -1.060000  O         1 MOL       -0.9500 ****
919Omg         25.120000   30.800000   -1.060000  O         1 MOL       -1.1808 ****
920  O         22.480000   29.490000   -1.060000  O         1 MOL       -1.0500 ****
921 Al         31.280000   29.340000    0.000000 Al         1 MOL        1.5750 ****
922 Al         31.280000   26.350000    0.000000 Al         1 MOL        1.5750 ****
923 Al         33.920000   33.770000    0.000000 Al         1 MOL        1.5750 ****
924Mgo         33.920000   30.670000    0.000000 Mg         1 MOL        1.3600 ****
925 Si         29.520000   29.320000    2.730000 Si         1 MOL        2.1000 ****
926 Si         26.880000   30.740000    2.730000 Si         1 MOL        2.1000 ****
927 Si         26.880000   33.630000    2.730000 Si         1 MOL        2.1000 ****
928 Si         29.520000   35.140000    2.730000 Si         1 MOL        2.1000 ****
929 Si         27.760000   35.100000   -2.730000 Si         1 MOL        2.1000 ****
930 Si         30.400000   33.670000   -2.730000 Si         1 MOL        2.1000 ****
931 Si         30.400000   30.750000   -2.730000 Si         1 MOL        2.1000 ****
932 Si         27.760000   29.350000   -2.730000 Si         1 MOL        2.1000 ****
933  H         27.830000   27.970000    0.870000  H         1 MOL        0.4250 ****
934  H         30.410000   31.930000    0.700000  H         1 MOL        0.4250 ****
935  H         29.450000   36.570000   -0.840000  H         1 MOL        0.4250 ****
936  H         26.910000   32.240000   -0.580000  H         1 MOL        0.4250 ****
937  O         29.520000   27.830000    3.280000  O         1 MOL       -1.0500 ****
938  O         28.200000   30.020000    3.280000  O         1 MOL       -1.0500 ****
939  O         30.840000   30.070000    3.280000  O         1 MOL       -1.0500 ****
940Ohmg         26.880000   27.800000    1.060000  O         1 MOL       -1.0809 ****
941  O         29.520000   29.390000    1.060000  O         1 MOL       -1.0500 ****
942Omg         26.880000   30.660000    1.060000  O         1 MOL       -1.1808 ****
943  O         26.880000   32.200000    3.280000  O         1 MOL       -1.0500 ****
944  O         30.840000   34.400000    3.280000  O         1 MOL       -1.0500 ****
945  O         28.200000   34.390000    3.280000  O         1 MOL       -1.0500 ****
946 Oh         29.520000   32.210000    1.060000  O         1 MOL       -0.9500 ****
947Omg         26.880000   33.820000    1.060000  O         1 MOL       -1.1808 ****
948  O         29.520000   35.060000    1.060000  O         1 MOL       -1.0500 ****
949  O         27.760000   36.590000   -3.280000  O         1 MOL       -1.0500 ****
950  O         29.080000   34.340000   -3.280000  O         1 MOL       -1.0500 ****
951  O         26.440000   34.450000   -3.280000  O         1 MOL       -1.0500 ****
952 Oh         30.400000   36.460000   -1.060000  O         1 MOL       -0.9500 ****
953Omg         27.760000   34.980000   -1.060000  O         1 MOL       -1.1808 ****
954  O         30.400000   33.740000   -1.060000  O         1 MOL       -1.0500 ****
955  O         30.400000   32.190000   -3.280000  O         1 MOL       -1.0500 ****
956  O         26.440000   30.010000   -3.280000  O         1 MOL       -1.0500 ****
957  O         29.080000   30.040000   -3.280000  O         1 MOL       -1.0500 ****
958 Oh         27.760000   32.220000   -1.060000  O         1 MOL       -0.9500 ****
959  O         30.400000   30.800000   -1.060000  O         1 MOL       -1.0500 ****
960Omg         27.760000   29.490000   -1.060000  O         1 MOL       -1.1808 ****
961Mgo          6.620000    4.920000   20.790000 Mg         1 MOL        1.3600 ****
962 Al          6.620000    1.930000   20.790000 Al         1 MOL        1.5750 ****
963 Al          9.260000    9.350000   20.790000 Al         1 MOL        1.5750 ****
964 Al          9.260000    6.250000   20.790000 Al         1 MOL        1.5750 ****
965 Si          4.860000    4.900000   23.520000 Si         1 MOL        2.1000 ****
966 Si          2.220000    6.320000   23.520000 Si         1 MOL        2.1000 ****
967 Si          2.220000    9.210000   23.520000 Si         1 MOL        2.1000 ****
968 Si          4.860000   10.720000   23.520000 Si         1 MOL        2.1000 ****
969 Si          3.100000   10.680000   18.060000 Si         1 MOL        2.1000 ****
970 Si          5.740000    9.250000   18.060000 Si         1 MOL        2.1000 ****
971 Si          5.740000    6.330000   18.060000 Si         1 MOL        2.1000 ****
972 Si          3.100000    4.930000   18.060000 Si         1 MOL        2.1000 ****
973  H          3.170000    3.550000   21.660000  H         1 MOL        0.4250 ****
974  H          5.750000    7.510000   21.490000  H         1 MOL        0.4250 ****
975  H          4.790000   12.150000   19.950000  H         1 MOL        0.4250 ****
976  H          2.250000    7.820000   20.210000  H         1 MOL        0.4250 ****
977  O          4.860000    3.410000   24.070000  O         1 MOL       -1.0500 ****
978  O          3.540000    5.600000   24.070000  O         1 MOL       -1.0500 ****
979  O          6.180000    5.650000   24.070000  O         1 MOL       -1.0500 ****
980 Oh          2.220000    3.380000   21.850000  O         1 MOL       -0.9500 ****
981Omg          4.860000    4.970000   21.850000  O         1 MOL       -1.1808 ****
982  O          2.220000    6.240000   21.850000  O         1 MOL       -1.0500 ****
983  O          2.220000    7.780000   24.070000  O         1 MOL       -1.0500 ****
984  O          6.180000    9.980000   24.070000  O         1 MOL       -1.0500 ****
985  O          3.540000    9.970000   24.070000  O         1 MOL       -1.0500 ****
986 Oh          4.860000    7.790000   21.850000  O         1 MOL       -0.9500 ****
987Omg          2.220000    9.400000   21.850000  O         1 MOL       -1.1808 ****
988  O          4.860000   10.640000   21.850000  O         1 MOL       -1.0500 ****
989  O          3.100000   12.170000   17.510000  O         1 MOL       -1.0500 ****
990  O          4.420000    9.920000   17.510000  O         1 MOL       -1.0500 ****
991  O          1.780000   10.030000   17.510000  O         1 MOL       -1.0500 ****
992 Oh          5.740000   12.040000   19.730000  O         1 MOL       -0.9500 ****
993Omg          3.100000   10.560000   19.730000  O         1 MOL       -1.1808 ****
994  O          5.740000    9.320000   19.730000  O         1 MOL       -1.0500 ****
995  O          5.740000    7.770000   17.510000  O         1 MOL       -1.0500 ****
996  O          1.780000    5.590000   17.510000  O         1 MOL       -1.0500 ****
997  O          4.420000    5.620000   17.510000  O         1 MOL       -1.0500 ****
998 Oh          3.100000    7.800000   19.730000  O         1 MOL       -0.9500 ****
999Omg          5.740000    6.380000   19.730000  O         1 MOL       -1.1808 ****
1000  O          3.100000    5.070000   19.730000  O         1 MOL       -1.0500 ****
1001 Al         11.900000    4.920000   20.790000 Al         1 MOL        1.5750 ****
1002 Al         11.900000    1.930000   20.790000 Al         1 MOL        1.5750 ****
1003 Al         14.540000    9.350000   20.790000 Al         1 MOL        1.5750 ****
1004 Al         14.540000    6.250000   20.790000 Al         1 MOL        1.5750 ****
1005 Si         10.140000    4.900000   23.520000 Si         1 MOL        2.1000 ****
1006 Si          7.500000    6.320000   23.520000 Si         1 MOL        2.1000 ****
1007 Si          7.500000    9.210000   23.520000 Si         1 MOL        2.1000 ****
1008 Si         10.140000   10.720000   23.520000 Si         1 MOL        2.1000 ****
1009 Si          8.380000   10.680000   18.060000 Si         1 MOL        2.1000 ****
1010 Si         11.020000    9.250000   18.060000 Si         1 MOL        2.1000 ****
1011 Si         11.020000    6.330000   18.060000 Si         1 MOL        2.1000 ****
1012 Si          8.380000    4.930000   18.060000 Si         1 MOL        2.1000 ****
1013  H          8.450000    3.550000   21.660000  H         1 MOL        0.4250 ****
1014  H         11.030000    7.510000   21.490000  H         1 MOL        0.4250 ****
1015  H         10.070000   12.150000   19.950000  H         1 MOL        0.4250 ****
1016  H          7.530000    7.820000   20.210000  H         1 MOL        0.4250 ****
1017  O         10.140000    3.410000   24.070000  O         1 MOL       -1.0500 ****
1018  O          8.820000    5.600000   24.070000  O         1 MOL       -1.0500 ****
1019  O         11.460000    5.650000   24.070000  O         1 MOL       -1.0500 ****
1020Ohmg          7.500000    3.380000   21.850000  O         1 MOL       -1.0809 ****
1021  O         10.140000    4.970000   21.850000  O         1 MOL       -1.0500 ****
1022Omg          7.500000    6.240000   21.850000  O         1 MOL       -1.1808 ****
1023  O          7.500000    7.780000   24.070000  O         1 MOL       -1.0500 ****
1024  O         11.460000    9.980000   24.070000  O         1 MOL       -1.0500 ****
1025  O          8.820000    9.970000   24.070000  O         1 MOL       -1.0500 ****
1026 Oh         10.140000    7.790000   21.850000  O         1 MOL       -0.9500 ****
1027  O          7.500000    9.400000   21.850000  O         1 MOL       -1.0500 ****
1028  O         10.140000   10.640000   21.850000  O         1 MOL       -1.0500 ****
1029  O          8.380000   12.170000   17.510000  O         1 MOL       -1.0500 ****
1030  O          9.700000    9.920000   17.510000  O         1 MOL       -1.0500 ****
1031  O          7.060000   10.030000   17.510000  O         1 MOL       -1.0500 ****
1032Ohmg         11.020000   12.040000   19.730000  O         1 MOL       -1.0809 ****
1033  O          8.380000   10.560000   19.730000  O         1 MOL       -1.0500 ****
1034  O         11.020000    9.320000   19.730000  O         1 MOL       -1.0500 ****
1035  O         11.020000    7.770000   17.510000  O         1 MOL       -1.0500 ****
1036  O          7.060000    5.590000   17.510000  O         1 MOL       -1.0500 ****
1037  O          9.700000    5.620000   17.510000  O         1 MOL       -1.0500 ****
1038 Oh          8.380000    7.800000   19.730000  O         1 MOL       -0.9500 ****
1039  O         11.020000    6.380000   19.730000  O         1 MOL       -1.0500 ****
1040Omg          8.380000    5.070000   19.730000  O         1 MOL       -1.1808 ****
1041 Al         17.180000    4.920000   20.790000 Al         1 MOL        1.5750 ****
1042Mgo         17.180000    1.930000   20.790000 Mg         1 MOL        1.3600 ****
1043 Al         19.820000    9.350000   20.790000 Al         1 MOL        1.5750 ****
1044 Al         19.820000    6.250000   20.790000 Al         1 MOL        1.5750 ****
1045 Si         15.420000    4.900000   23.520000 Si         1 MOL        2.1000 ****
1046 Si         12.780000    6.320000   23.520000 Si         1 MOL        2.1000 ****
1047 Si         12.780000    9.210000   23.520000 Si         1 MOL        2.1000 ****
1048 Si         15.420000   10.720000   23.520000 Si         1 MOL        2.1000 ****
1049 Si         13.660000   10.680000   18.060000 Si         1 MOL        2.1000 ****
1050 Si         16.300000    9.250000   18.060000 Si         1 MOL        2.1000 ****
1051 Si         16.300000    6.330000   18.060000 Si         1 MOL        2.1000 ****
1052 Si         13.660000    4.930000   18.060000 Si         1 MOL        2.1000 ****
1053  H         13.730000    3.550000   21.660000  H         1 MOL        0.4250 ****
1054  H         16.310000    7.510000   21.490000  H         1 MOL        0.4250 ****
1055  H         15.350000   12.150000   19.950000  H         1 MOL        0.4250 ****
1056  H         12.810000    7.820000   20.210000  H         1 MOL        0.4250 ****
1057  O         15.420000    3.410000   24.070000  O         1 MOL       -1.0500 ****
1058  O         14.100000    5.600000   24.070000  O         1 MOL       -1.0500 ****
1059  O         16.740000    5.650000   24.070000  O         1 MOL       -1.0500 ****
1060 Oh         12.780000    3.380000   21.850000  O         1 MOL       -0.9500 ****
1061  O         15.420000    4.970000   21.850000  O         1 MOL       -1.0500 ****
1062  O         12.780000    6.240000   21.850000  O         1 MOL       -1.0500 ****
1063  O         12.780000    7.780000   24.070000  O         1 MOL       -1.0500 ****
1064  O         16.740000    9.980000   24.070000  O         1 MOL       -1.0500 ****
1065  O         14.100000    9.970000   24.070000  O         1 MOL       -1.0500 ****
1066 Oh         15.420000    7.790000   21.850000  O         1 MOL       -0.9500 ****
1067  O         12.780000    9.400000   21.850000  O         1 MOL       -1.0500 ****
1068Omg         15.420000   10.640000   21.850000  O         1 MOL       -1.1808 ****
1069  O         13.660000   12.170000   17.510000  O         1 MOL       -1.0500 ****
1070  O         14.980000    9.920000   17.510000  O         1 MOL       -1.0500 ****
1071  O         12.340000   10.030000   17.510000  O         1 MOL       -1.0500 ****
1072Ohmg         16.300000   12.040000   19.730000  O         1 MOL       -1.0809 ****
1073  O         13.660000   10.560000   19.730000  O         1 MOL       -1.0500 ****
1074Omg         16.300000    9.320000   19.730000  O         1 MOL       -1.1808 ****
1075  O         16.300000    7.770000   17.510000  O         1 MOL       -1.0500 ****
1076  O         12.340000    5.590000   17.510000  O         1 MOL       -1.0500 ****
1077  O         14.980000    5.620000   17.510000  O         1 MOL       -1.0500 ****
1078 Oh         13.660000    7.800000   19.730000  O         1 MOL       -0.9500 ****
1079  O         16.300000    6.380000   19.730000  O         1 MOL       -1.0500 ****
1080  O         13.660000    5.070000   19.730000  O         1 MOL       -1.0500 ****
1081 Al         22.460000    4.920000   20.790000 Al         1 MOL        1.5750 ****
1082 Al         22.460000    1.930000   20.790000 Al         1 MOL        1.5750 ****
1083 Al         25.100000    9.350000   20.790000 Al         1 MOL        1.5750 ****
1084Mgo         25.100000    6.250000   20.790000 Mg         1 MOL        1.3600 ****
1085 Si         20.700000    4.900000   23.520000 Si         1 MOL        2.1000 ****
1086 Si         18.060000    6.320000   23.520000 Si         1 MOL        2.1000 ****
1087 Si         18.060000    9.210000   23.520000 Si         1 MOL        2.1000 ****
1088 Si         20.700000   10.720000   23.520000 Si         1 MOL        2.1000 ****
1089 Si         18.940000   10.680000   18.060000 Si         1 MOL        2.1000 ****
1090 Si         21.580000    9.250000   18.060000 Si         1 MOL        2.1000 ****
1091 Si         21.580000    6.330000   18.060000 Si         1 MOL        2.1000 ****
1092 Si         18.940000    4.930000   18.060000 Si         1 MOL        2.1000 ****
1093  H         19.010000    3.550000   21.660000  H         1 MOL        0.4250 ****
1094  H         21.590000    7.510000   21.490000  H         1 MOL        0.4250 ****
1095  H         20.630000   12.150000   19.950000  H         1 MOL        0.4250 ****
1096  H         18.090000    7.820000   20.210000  H         1 MOL        0.4250 ****
1097  O         20.700000    3.410000   24.070000  O         1 MOL       -1.0500 ****
1098  O         19.380000    5.600000   24.070000  O         1 MOL       -1.0500 ****
1099  O         22.020000    5.650000   24.070000  O         1 MOL       -1.0500 ****
1100Ohmg         18.060000    3.380000   21.850000  O         1 MOL       -1.0809 ****
1101  O         20.700000    4.970000   21.850000  O         1 MOL       -1.0500 ****
1102  O         18.060000    6.240000   21.850000  O         1 MOL       -1.0500 ****
1103  O         18.060000    7.780000   24.070000  O         1 MOL       -1.0500 ****
1104  O         22.020000    9.980000   24.070000  O         1 MOL       -1.0500 ****
1105  O         19.380000    9.970000   24.070000  O         1 MOL       -1.0500 ****
1106 Oh         20.700000    7.790000   21.850000  O         1 MOL       -0.9500 ****
1107Omg         18.060000    9.400000   21.850000  O         1 MOL       -1.1808 ****
1108  O         20.700000   10.640000   21.850000  O         1 MOL       -1.0500 ****
1109  O         18.940000   12.170000   17.510000  O         1 MOL       -1.0500 ****
1110  O         20.260000    9.920000   17.510000  O         1 MOL       -1.0500 ****
1111  O         17.620000   10.030000   17.510000  O         1 MOL       -1.0500 ****
1112 Oh         21.580000   12.040000   19.730000  O         1 MOL       -0.9500 ****
1113Omg         18.940000   10.560000   19.730000  O         1 MOL       -1.1808 ****
1114  O         21.580000    9.320000   19.730000  O         1 MOL       -1.0500 ****
1115  O         21.580000    7.770000   17.510000  O         1 MOL       -1.0500 ****
1116  O         17.620000    5.590000   17.510000  O         1 MOL       -1.0500 ****
1117  O         20.260000    5.620000   17.510000  O         1 MOL       -1.0500 ****
1118 Oh         18.940000    7.800000   19.730000  O         1 MOL       -0.9500 ****
1119  O         21.580000    6.380000   19.730000  O         1 MOL       -1.0500 ****
1120  O         18.940000    5.070000   19.730000  O         1 MOL       -1.0500 ****
1121 Al         27.740000    4.920000   20.790000 Al         1 MOL        1.5750 ****
1122 Al         27.740000    1.930000   20.790000 Al         1 MOL        1.5750 ****
1123 Al         30.380000    9.350000   20.790000 Al         1 MOL        1.5750 ****
1124 Al         30.380000    6.250000   20.790000 Al         1 MOL        1.5750 ****
1125 Si         25.980000    4.900000   23.520000 Si         1 MOL        2.1000 ****
1126 Si         23.340000    6.320000   23.520000 Si         1 MOL        2.1000 ****
1127 Si         23.340000    9.210000   23.520000 Si         1 MOL        2.1000 ****
1128 Si         25.980000   10.720000   23.520000 Si         1 MOL        2.1000 ****
1129 Si         24.220000   10.680000   18.060000 Si         1 MOL        2.1000 ****
1130 Si         26.860000    9.250000   18.060000 Si         1 MOL        2.1000 ****
1131 Si         26.860000    6.330000   18.060000 Si         1 MOL        2.1000 ****
1132 Si         24.220000    4.930000   18.060000 Si         1 MOL        2.1000 ****
1133  H         24.290000    3.550000   21.660000  H         1 MOL        0.4250 ****
1134  H         26.870000    7.510000   21.490000  H         1 MOL        0.4250 ****
1135  H         25.910000   12.150000   19.950000  H         1 MOL        0.4250 ****
1136  H         23.370000    7.820000   20.210000  H         1 MOL        0.4250 ****
1137  O         25.980000    3.410000   24.070000  O         1 MOL       -1.0500 ****
1138  O         24.660000    5.600000   24.070000  O         1 MOL       -1.0500 ****
1139  O         27.300000    5.650000   24.070000  O         1 MOL       -1.0500 ****
1140 Oh         23.340000    3.380000   21.850000  O         1 MOL       -0.9500 ****
1141Omg         25.980000    4.970000   21.850000  O         1 MOL       -1.1808 ****
1142Omg         23.340000    6.240000   21.850000  O         1 MOL       -1.1808 ****
1143  O         23.340000    7.780000   24.070000  O         1 MOL       -1.0500 ****
1144  O         27.300000    9.980000   24.070000  O         1 MOL       -1.0500 ****
1145  O         24.660000    9.970000   24.070000  O         1 MOL       -1.0500 ****
1146Ohmg         25.980000    7.790000   21.850000  O         1 MOL       -1.0809 ****
1147  O         23.340000    9.400000   21.850000  O         1 MOL       -1.0500 ****
1148  O         25.980000   10.640000   21.850000  O         1 MOL       -1.0500 ****
1149  O         24.220000   12.170000   17.510000  O         1 MOL       -1.0500 ****
1150  O         25.540000    9.920000   17.510000  O         1 MOL       -1.0500 ****
1151  O         22.900000   10.030000   17.510000  O         1 MOL       -1.0500 ****
1152 Oh         26.860000   12.040000   19.730000  O         1 MOL       -0.9500 ****
1153  O         24.220000   10.560000   19.730000  O         1 MOL       -1.0500 ****
1154  O         26.860000    9.320000   19.730000  O         1 MOL       -1.0500 ****
1155  O         26.860000    7.770000   17.510000  O         1 MOL       -1.0500 ****
1156  O         22.900000    5.590000   17.510000  O         1 MOL       -1.0500 ****
1157  O         25.540000    5.620000   17.510000  O         1 MOL       -1.0500 ****
1158Ohmg         24.220000    7.800000   19.730000  O         1 MOL       -1.0809 ****
1159Omg         26.860000    6.380000   19.730000  O         1 MOL       -1.1808 ****
1160Omg         24.220000    5.070000   19.730000  O         1 MOL       -1.1808 ****
1161 Al         33.020000    4.920000   20.790000 Al         1 MOL        1.5750 ****
1162 Al         33.020000    1.930000   20.790000 Al         1 MOL        1.5750 ****
1163 Al         35.660000    9.350000   20.790000 Al         1 MOL        1.5750 ****
1164 Al         35.660000    6.250000   20.790000 Al         1 MOL        1.5750 ****
1165 Si         31.260000    4.900000   23.520000 Si         1 MOL        2.1000 ****
1166 Si         28.620000    6.320000   23.520000 Si         1 MOL        2.1000 ****
1167 Si         28.620000    9.210000   23.520000 Si         1 MOL        2.1000 ****
1168 Si         31.260000   10.720000   23.520000 Si         1 MOL        2.1000 ****
1169 Si         29.500000   10.680000   18.060000 Si         1 MOL        2.1000 ****
1170 Si         32.140000    9.250000   18.060000 Si         1 MOL        2.1000 ****
1171 Si         32.140000    6.330000   18.060000 Si         1 MOL        2.1000 ****
1172 Si         29.500000    4.930000   18.060000 Si         1 MOL        2.1000 ****
1173  H         29.570000    3.550000   21.660000  H         1 MOL        0.4250 ****
1174  H         32.150000    7.510000   21.490000  H         1 MOL        0.4250 ****
1175  H         31.190000   12.150000   19.950000  H         1 MOL        0.4250 ****
1176  H         28.650000    7.820000   20.210000  H         1 MOL        0.4250 ****
1177  O         31.260000    3.410000   24.070000  O         1 MOL       -1.0500 ****
1178  O         29.940000    5.600000   24.070000  O         1 MOL       -1.0500 ****
1179  O         32.580000    5.650000   24.070000  O         1 MOL       -1.0500 ****
1180 Oh         28.620000    3.380000   21.850000  O         1 MOL       -0.9500 ****
1181  O         31.260000    4.970000   21.850000  O         1 MOL       -1.0500 ****
1182  O         28.620000    6.240000   21.850000  O         1 MOL       -1.0500 ****
1183  O         28.620000    7.780000   24.070000  O         1 MOL       -1.0500 ****
1184  O         32.580000    9.980000   24.070000  O         1 MOL       -1.0500 ****
1185  O         29.940000    9.970000   24.070000  O         1 MOL       -1.0500 ****
1186 Oh         31.260000    7.790000   21.850000  O         1 MOL       -0.9500 ****
1187  O         28.620000    9.400000   21.850000  O         1 MOL       -1.0500 ****
1188Omg         31.260000   10.640000   21.850000  O         1 MOL       -1.1808 ****
1189  O         29.500000   12.170000   17.510000  O         1 MOL       -1.0500 ****
1190  O         30.820000    9.920000   17.510000  O         1 MOL       -1.0500 ****
1191  O         28.180000   10.030000   17.510000  O         1 MOL       -1.0500 ****
1192Ohmg         32.140000   12.040000   19.730000  O         1 MOL       -1.0809 ****
1193  O         29.500000   10.560000   19.730000  O         1 MOL       -1.0500 ****
1194Omg         32.140000    9.320000   19.730000  O         1 MOL       -1.1808 ****
1195  O         32.140000    7.770000   17.510000  O         1 MOL       -1.0500 ****
1196  O         28.180000    5.590000   17.510000  O         1 MOL       -1.0500 ****
1197  O         30.820000    5.620000   17.510000  O         1 MOL       -1.0500 ****
1198 Oh         29.500000    7.800000   19.730000  O         1 MOL       -0.9500 ****
1199  O         32.140000    6.380000   19.730000  O         1 MOL       -1.0500 ****
1200  O         29.500000    5.070000   19.730000  O         1 MOL       -1.0500 ****
1201 Al          6.620000   14.060000   20.790000 Al         1 MOL        1.5750 ****
1202 Al          6.620000   11.070000   20.790000 Al         1 MOL        1.5750 ****
1203 Al          9.260000   18.490000   20.790000 Al         1 MOL        1.5750 ****
1204 Al          9.260000   15.390000   20.790000 Al         1 MOL        1.5750 ****
1205 Si          4.860000   14.040000   23.520000 Si         1 MOL        2.1000 ****
1206 Si          2.220000   15.460000   23.520000 Si         1 MOL        2.1000 ****
1207 Si          2.220000   18.350000   23.520000 Si         1 MOL        2.1000 ****
1208 Si          4.860000   19.860000   23.520000 Si         1 MOL        2.1000 ****
1209 Si          3.100000   19.820000   18.060000 Si         1 MOL        2.1000 ****
1210 Si          5.740000   18.390000   18.060000 Si         1 MOL        2.1000 ****
1211 Si          5.740000   15.470000   18.060000 Si         1 MOL        2.1000 ****
1212 Si          3.100000   14.070000   18.060000 Si         1 MOL        2.1000 ****
1213  H          3.170000   12.690000   21.660000  H         1 MOL        0.4250 ****
1214  H          5.750000   16.650000   21.490000  H         1 MOL        0.4250 ****
1215  H          4.790000   21.290000   19.950000  H         1 MOL        0.4250 ****
1216  H          2.250000   16.960000   20.210000  H         1 MOL        0.4250 ****
1217  O          4.860000   12.550000   24.070000  O         1 MOL       -1.0500 ****
1218  O          3.540000   14.740000   24.070000  O         1 MOL       -1.0500 ****
1219  O          6.180000   14.790000   24.070000  O         1 MOL       -1.0500 ****
1220Ohmg          2.220000   12.520000   21.850000  O         1 MOL       -1.0809 ****
1221  O          4.860000   14.110000   21.850000  O         1 MOL       -1.0500 ****
1222  O          2.220000   15.380000   21.850000  O         1 MOL       -1.0500 ****
1223  O          2.220000   16.920000   24.070000  O         1 MOL       -1.0500 ****
1224  O          6.180000   19.120000   24.070000  O         1 MOL       -1.0500 ****
1225  O          3.540000   19.110000   24.070000  O         1 MOL       -1.0500 ****
1226 Oh          4.860000   16.930000   21.850000  O         1 MOL       -0.9500 ****
1227  O          2.220000   18.540000   21.850000  O         1 MOL       -1.0500 ****
1228  O          4.860000   19.780000   21.850000  O         1 MOL       -1.0500 ****
1229  O          3.100000   21.310000   17.510000  O         1 MOL       -1.0500 ****
1230  O          4.420000   19.060000   17.510000  O         1 MOL       -1.0500 ****
1231  O          1.780000   19.170000   17.510000  O         1 MOL       -1.0500 ****
1232 Oh          5.740000   21.180000   19.730000  O         1 MOL       -0.9500 ****
1233  O          3.100000   19.700000   19.730000  O         1 MOL       -1.0500 ****
1234  O          5.740000   18.460000   19.730000  O         1 MOL       -1.0500 ****
1235  O          5.740000   16.910000   17.510000  O         1 MOL       -1.0500 ****
1236  O          1.780000   14.730000   17.510000  O         1 MOL       -1.0500 ****
1237  O          4.420000   14.760000   17.510000  O         1 MOL       -1.0500 ****
1238 Oh          3.100000   16.940000   19.730000  O         1 MOL       -0.9500 ****
1239  O          5.740000   15.520000   19.730000  O         1 MOL       -1.0500 ****
1240  O          3.100000   14.210000   19.730000  O         1 MOL       -1.0500 ****
1241Mgo         11.900000   14.060000   20.790000 Mg         1 MOL        1.3600 ****
1242 Al         11.900000   11.070000   20.790000 Al         1 MOL        1.5750 ****
1243 Al         14.540000   18.490000   20.790000 Al         1 MOL        1.5750 ****
1244 Al         14.540000   15.390000   20.790000 Al         1 MOL        1.5750 ****
1245 Si         10.140000   14.040000   23.520000 Si         1 MOL        2.1000 ****
1246 Si          7.500000   15.460000   23.520000 Si         1 MOL        2.1000 ****
1247 Si          7.500000   18.350000   23.520000 Si         1 MOL        2.1000 ****
1248 Si         10.140000   19.860000   23.520000 Si         1 MOL        2.1000 ****
1249 Si          8.380000   19.820000   18.060000 Si         1 MOL        2.1000 ****
1250 Si         11.020000   18.390000   18.060000 Si         1 MOL        2.1000 ****
1251 Si         11.020000   15.470000   18.060000 Si         1 MOL        2.1000 ****
1252 Si          8.380000   14.070000   18.060000 Si         1 MOL        2.1000 ****
1253  H          8.450000   12.690000   21.660000  H         1 MOL        0.4250 ****
1254  H         11.030000   16.650000   21.490000  H         1 MOL        0.4250 ****
1255  H         10.070000   21.290000   19.950000  H         1 MOL        0.4250 ****
1256  H          7.530000   16.960000   20.210000  H         1 MOL        0.4250 ****
1257  O         10.140000   12.550000   24.070000  O         1 MOL       -1.0500 ****
1258  O          8.820000   14.740000   24.070000  O         1 MOL       -1.0500 ****
1259  O         11.460000   14.790000   24.070000  O         1 MOL       -1.0500 ****
1260 Oh          7.500000   12.520000   21.850000  O         1 MOL       -0.9500 ****
1261Omg         10.140000   14.110000   21.850000  O         1 MOL       -1.1808 ****
1262  O          7.500000   15.380000   21.850000  O         1 MOL       -1.0500 ****
1263  O          7.500000   16.920000   24.070000  O         1 MOL       -1.0500 ****
1264  O         11.460000   19.120000   24.070000  O         1 MOL       -1.0500 ****
1265  O          8.820000   19.110000   24.070000  O         1 MOL       -1.0500 ****
1266 Oh         10.140000   16.930000   21.850000  O         1 MOL       -0.9500 ****
1267  O          7.500000   18.540000   21.850000  O         1 MOL       -1.0500 ****
1268Omg         10.140000   19.780000   21.850000  O         1 MOL       -1.1808 ****
1269  O          8.380000   21.310000   17.510000  O         1 MOL       -1.0500 ****
1270  O          9.700000   19.060000   17.510000  O         1 MOL       -1.0500 ****
1271  O          7.060000   19.170000   17.510000  O         1 MOL       -1.0500 ****
1272Ohmg         11.020000   21.180000   19.730000  O         1 MOL       -1.0809 ****
1273  O          8.380000   19.700000   19.730000  O         1 MOL       -1.0500 ****
1274Omg         11.020000   18.460000   19.730000  O         1 MOL       -1.1808 ****
1275  O         11.020000   16.910000   17.510000  O         1 MOL       -1.0500 ****
1276  O          7.060000   14.730000   17.510000  O         1 MOL       -1.0500 ****
1277  O          9.700000   14.760000   17.510000  O         1 MOL       -1.0500 ****
1278 Oh          8.380000   16.940000   19.730000  O         1 MOL       -0.9500 ****
1279Omg         11.020000   15.520000   19.730000  O         1 MOL       -1.1808 ****
1280  O          8.380000   14.210000   19.730000  O         1 MOL       -1.0500 ****
1281 Al         17.180000   14.060000   20.790000 Al         1 MOL        1.5750 ****
1282Mgo         17.180000   11.070000   20.790000 Mg         1 MOL        1.3600 ****
1283 Al         19.820000   18.490000   20.790000 Al         1 MOL        1.5750 ****
1284 Al         19.820000   15.390000   20.790000 Al         1 MOL        1.5750 ****
1285 Si         15.420000   14.040000   23.520000 Si         1 MOL        2.1000 ****
1286 Si         12.780000   15.460000   23.520000 Si         1 MOL        2.1000 ****
1287 Si         12.780000   18.350000   23.520000 Si         1 MOL        2.1000 ****
1288 Si         15.420000   19.860000   23.520000 Si         1 MOL        2.1000 ****
1289 Si         13.660000   19.820000   18.060000 Si         1 MOL        2.1000 ****
1290 Si         16.300000   18.390000   18.060000 Si         1 MOL        2.1000 ****
1291 Si         16.300000   15.470000   18.060000 Si         1 MOL        2.1000 ****
1292 Si         13.660000   14.070000   18.060000 Si         1 MOL        2.1000 ****
1293  H         13.730000   12.690000   21.660000  H         1 MOL        0.4250 ****
1294  H         16.310000   16.650000   21.490000  H         1 MOL        0.4250 ****
1295  H         15.350000   21.290000   19.950000  H         1 MOL        0.4250 ****
1296  H         12.810000   16.960000   20.210000  H         1 MOL        0.4250 ****
1297  O         15.420000   12.550000   24.070000  O         1 MOL       -1.0500 ****
1298  O         14.100000   14.740000   24.070000  O         1 MOL       -1.0500 ****
1299  O         16.740000   14.790000   24.070000  O         1 MOL       -1.0500 ****
1300Ohmg         12.780000   12.520000   21.850000  O         1 MOL       -1.0809 ****
1301  O         15.420000   14.110000   21.850000  O         1 MOL       -1.0500 ****
1302Omg         12.780000   15.380000   21.850000  O         1 MOL       -1.1808 ****
1303  O         12.780000   16.920000   24.070000  O         1 MOL       -1.0500 ****
1304  O         16.740000   19.120000   24.070000  O         1 MOL       -1.0500 ****
1305  O         14.100000   19.110000   24.070000  O         1 MOL       -1.0500 ****
1306 Oh         15.420000   16.930000   21.850000  O         1 MOL       -0.9500 ****
1307Omg         12.780000   18.540000   21.850000  O         1 MOL       -1.1808 ****
1308  O         15.420000   19.780000   21.850000  O         1 MOL       -1.0500 ****
1309  O         13.660000   21.310000   17.510000  O         1 MOL       -1.0500 ****
1310  O         14.980000   19.060000   17.510000  O         1 MOL       -1.0500 ****
1311  O         12.340000   19.170000   17.510000  O         1 MOL       -1.0500 ****
1312 Oh         16.300000   21.180000   19.730000  O         1 MOL       -0.9500 ****
1313Omg         13.660000   19.700000   19.730000  O         1 MOL       -1.1808 ****
1314  O         16.300000   18.460000   19.730000  O         1 MOL       -1.0500 ****
1315  O         16.300000   16.910000   17.510000  O         1 MOL       -1.0500 ****
1316  O         12.340000   14.730000   17.510000  O         1 MOL       -1.0500 ****
1317  O         14.980000   14.760000   17.510000  O         1 MOL       -1.0500 ****
1318 Oh         13.660000   16.940000   19.730000  O         1 MOL       -0.9500 ****
1319  O         16.300000   15.520000   19.730000  O         1 MOL       -1.0500 ****
1320Omg         13.660000   14.210000   19.730000  O         1 MOL       -1.1808 ****
1321 Al         22.460000   14.060000   20.790000 Al         1 MOL        1.5750 ****
1322 Al         22.460000   11.070000   20.790000 Al         1 MOL        1.5750 ****
1323 Al         25.100000   18.490000   20.790000 Al         1 MOL        1.5750 ****
1324 Al         25.100000   15.390000   20.790000 Al         1 MOL        1.5750 ****
1325 Si         20.700000   14.040000   23.520000 Si         1 MOL        2.1000 ****
1326 Si         18.060000   15.460000   23.520000 Si         1 MOL        2.1000 ****
1327 Si         18.060000   18.350000   23.520000 Si         1 MOL        2.1000 ****
1328 Si         20.700000   19.860000   23.520000 Si         1 MOL        2.1000 ****
1329 Si         18.940000   19.820000   18.060000 Si         1 MOL        2.1000 ****
1330 Si         21.580000   18.390000   18.060000 Si         1 MOL        2.1000 ****
1331 Si         21.580000   15.470000   18.060000 Si         1 MOL        2.1000 ****
1332 Si         18.940000   14.070000   18.060000 Si         1 MOL        2.1000 ****
1333  H         19.010000   12.690000   21.660000  H         1 MOL        0.4250 ****
1334  H         21.590000   16.650000   21.490000  H         1 MOL        0.4250 ****
1335  H         20.630000   21.290000   19.950000  H         1 MOL        0.4250 ****
1336  H         18.090000   16.960000   20.210000  H         1 MOL        0.4250 ****
1337  O         20.700000   12.550000   24.070000  O         1 MOL       -1.0500 ****
1338  O         19.380000   14.740000   24.070000  O         1 MOL       -1.0500 ****
1339  O         22.020000   14.790000   24.070000  O         1 MOL       -1.0500 ****
1340Ohmg         18.060000   12.520000   21.850000  O         1 MOL       -1.0809 ****
1341  O         20.700000   14.110000   21.850000  O         1 MOL       -1.0500 ****
1342  O         18.060000   15.380000   21.850000  O         1 MOL       -1.0500 ****
1343  O         18.060000   16.920000   24.070000  O         1 MOL       -1.0500 ****
1344  O         22.020000   19.120000   24.070000  O         1 MOL       -1.0500 ****
1345  O         19.380000   19.110000   24.070000  O         1 MOL       -1.0500 ****
1346 Oh         20.700000   16.930000   21.850000  O         1 MOL       -0.9500 ****
1347  O         18.060000   18.540000   21.850000  O         1 MOL       -1.0500 ****
1348Omg         20.700000   19.780000   21.850000  O         1 MOL       -1.1808 ****
1349  O         18.940000   21.310000   17.510000  O         1 MOL       -1.0500 ****
1350  O         20.260000   19.060000   17.510000  O         1 MOL       -1.0500 ****
1351  O         17.620000   19.170000   17.510000  O         1 MOL       -1.0500 ****
1352Ohmg         21.580000   21.180000   19.730000  O         1 MOL       -1.0809 ****
1353  O         18.940000   19.700000   19.730000  O         1 MOL       -1.0500 ****
1354Omg         21.580000   18.460000   19.730000  O         1 MOL       -1.1808 ****
1355  O         21.580000   16.910000   17.510000  O         1 MOL       -1.0500 ****
1356  O         17.620000   14.730000   17.510000  O         1 MOL       -1.0500 ****
1357  O         20.260000   14.760000   17.510000  O         1 MOL       -1.0500 ****
1358 Oh         18.940000   16.940000   19.730000  O         1 MOL       -0.9500 ****
1359  O         21.580000   15.520000   19.730000  O         1 MOL       -1.0500 ****
1360  O         18.940000   14.210000   19.730000  O         1 MOL       -1.0500 ****
1361 Al         27.740000   14.060000   20.790000 Al         1 MOL        1.5750 ****
1362 Al         27.740000   11.070000   20.790000 Al         1 MOL        1.5750 ****
1363Mgo         30.380000   18.490000   20.790000 Mg         1 MOL        1.3600 ****
1364 Al         30.380000   15.390000   20.790000 Al         1 MOL        1.5750 ****
1365 Si         25.980000   14.040000   23.520000 Si         1 MOL        2.1000 ****
1366 Si         23.340000   15.460000   23.520000 Si         1 MOL        2.1000 ****
1367 Si         23.340000   18.350000   23.520000 Si         1 MOL        2.1000 ****
1368 Si         25.980000   19.860000   23.520000 Si         1 MOL        2.1000 ****
1369 Si         24.220000   19.820000   18.060000 Si         1 MOL        2.1000 ****
1370 Si         26.860000   18.390000   18.060000 Si         1 MOL        2.1000 ****
1371 Si         26.860000   15.470000   18.060000 Si         1 MOL        2.1000 ****
1372 Si         24.220000   14.070000   18.060000 Si         1 MOL        2.1000 ****
1373  H         24.290000   12.690000   21.660000  H         1 MOL        0.4250 ****
1374  H         26.870000   16.650000   21.490000  H         1 MOL        0.4250 ****
1375  H         25.910000   21.290000   19.950000  H         1 MOL        0.4250 ****
1376  H         23.370000   16.960000   20.210000  H         1 MOL        0.4250 ****
1377  O         25.980000   12.550000   24.070000  O         1 MOL       -1.0500 ****
1378  O         24.660000   14.740000   24.070000  O         1 MOL       -1.0500 ****
1379  O         27.300000   14.790000   24.070000  O         1 MOL       -1.0500 ****
1380 Oh         23.340000   12.520000   21.850000  O         1 MOL       -0.9500 ****
1381  O         25.980000   14.110000   21.850000  O         1 MOL       -1.0500 ****
1382  O         23.340000   15.380000   21.850000  O         1 MOL       -1.0500 ****
1383  O         23.340000   16.920000   24.070000  O         1 MOL       -1.0500 ****
1384  O         27.300000   19.120000   24.070000  O         1 MOL       -1.0500 ****
1385  O         24.660000   19.110000   24.070000  O         1 MOL       -1.0500 ****
1386 Oh         25.980000   16.930000   21.850000  O         1 MOL       -0.9500 ****
1387Omg         23.340000   18.540000   21.850000  O         1 MOL       -1.1808 ****
1388  O         25.980000   19.780000   21.850000  O         1 MOL       -1.0500 ****
1389  O         24.220000   21.310000   17.510000  O         1 MOL       -1.0500 ****
1390  O         25.540000   19.060000   17.510000  O         1 MOL       -1.0500 ****
1391  O         22.900000   19.170000   17.510000  O         1 MOL       -1.0500 ****
1392 Oh         26.860000   21.180000   19.730000  O         1 MOL       -0.9500 ****
1393Omg         24.220000   19.700000   19.730000  O         1 MOL       -1.1808 ****
1394  O         26.860000   18.460000   19.730000  O         1 MOL       -1.0500 ****
1395  O         26.860000   16.910000   17.510000  O         1 MOL       -1.0500 ****
1396  O         22.900000   14.730000   17.510000  O         1 MOL       -1.0500 ****
1397  O         25.540000   14.760000   17.510000  O         1 MOL       -1.0500 ****
1398 Oh         24.220000   16.940000   19.730000  O         1 MOL       -0.9500 ****
1399  O         26.860000   15.520000   19.730000  O         1 MOL       -1.0500 ****
1400  O         24.220000   14.210000   19.730000  O         1 MOL       -1.0500 ****
1401 Al         33.020000   14.060000   20.790000 Al         1 MOL        1.5750 ****
1402Mgo         33.020000   11.070000   20.790000 Mg         1 MOL        1.3600 ****
1403 Al         35.660000   18.490000   20.790000 Al         1 MOL        1.5750 ****
1404 Al         35.660000   15.390000   20.790000 Al         1 MOL        1.5750 ****
1405 Si         31.260000   14.040000   23.520000 Si         1 MOL        2.1000 ****
1406 Si         28.620000   15.460000   23.520000 Si         1 MOL        2.1000 ****
1407 Si         28.620000   18.350000   23.520000 Si         1 MOL        2.1000 ****
1408 Si         31.260000   19.860000   23.520000 Si         1 MOL        2.1000 ****
1409 Si         29.500000   19.820000   18.060000 Si         1 MOL        2.1000 ****
1410 Si         32.140000   18.390000   18.060000 Si         1 MOL        2.1000 ****
1411 Si         32.140000   15.470000   18.060000 Si         1 MOL        2.1000 ****
1412 Si         29.500000   14.070000   18.060000 Si         1 MOL        2.1000 ****
1413  H         29.570000   12.690000   21.660000  H         1 MOL        0.4250 ****
1414  H         32.150000   16.650000   21.490000  H         1 MOL        0.4250 ****
1415  H         31.190000   21.290000   19.950000  H         1 MOL        0.4250 ****
1416  H         28.650000   16.960000   20.210000  H         1 MOL        0.4250 ****
1417  O         31.260000   12.550000   24.070000  O         1 MOL       -1.0500 ****
1418  O         29.940000   14.740000   24.070000  O         1 MOL       -1.0500 ****
1419  O         32.580000   14.790000   24.070000  O         1 MOL       -1.0500 ****
1420 Oh         28.620000   12.520000   21.850000  O         1 MOL       -0.9500 ****
1421  O         31.260000   14.110000   21.850000  O         1 MOL       -1.0500 ****
1422  O         28.620000   15.380000   21.850000  O         1 MOL       -1.0500 ****
1423  O         28.620000   16.920000   24.070000  O         1 MOL       -1.0500 ****
1424  O         32.580000   19.120000   24.070000  O         1 MOL       -1.0500 ****
1425  O         29.940000   19.110000   24.070000  O         1 MOL       -1.0500 ****
1426Ohmg         31.260000   16.930000   21.850000  O         1 MOL       -1.0809 ****
1427Omg         28.620000   18.540000   21.850000  O         1 MOL       -1.1808 ****
1428Omg         31.260000   19.780000   21.850000  O         1 MOL       -1.1808 ****
1429  O         29.500000   21.310000   17.510000  O         1 MOL       -1.0500 ****
1430  O         30.820000   19.060000   17.510000  O         1 MOL       -1.0500 ****
1431  O         28.180000   19.170000   17.510000  O         1 MOL       -1.0500 ****
1432 Oh         32.140000   21.180000   19.730000  O         1 MOL       -0.9500 ****
1433Omg         29.500000   19.700000   19.730000  O         1 MOL       -1.1808 ****
1434Omg         32.140000   18.460000   19.730000  O         1 MOL       -1.1808 ****
1435  O         32.140000   16.910000   17.510000  O         1 MOL       -1.0500 ****
1436  O         28.180000   14.730000   17.510000  O         1 MOL       -1.0500 ****
1437  O         30.820000   14.760000   17.510000  O         1 MOL       -1.0500 ****
1438Ohmg         29.500000   16.940000   19.730000  O         1 MOL       -1.0809 ****
1439  O         32.140000   15.520000   19.730000  O         1 MOL       -1.0500 ****
1440  O         29.500000   14.210000   19.730000  O         1 MOL       -1.0500 ****
1441 Al          6.620000   23.200000   20.790000 Al         1 MOL        1.5750 ****
1442 Al          6.620000   20.210000   20.790000 Al         1 MOL        1.5750 ****
1443Mgo          9.260000   27.630000   20.790000 Mg         1 MOL        1.3600 ****
1444 Al          9.260000   24.530000   20.790000 Al         1 MOL        1.5750 ****
1445 Si          4.860000   23.180000   23.520000 Si         1 MOL        2.1000 ****
1446 Si          2.220000   24.600000   23.520000 Si         1 MOL        2.1000 ****
1447 Si          2.220000   27.490000   23.520000 Si         1 MOL        2.1000 ****
1448 Si          4.860000   29.000000   23.520000 Si         1 MOL        2.1000 ****
1449 Si          3.100000   28.960000   18.060000 Si         1 MOL        2.1000 ****
1450 Si          5.740000   27.530000   18.060000 Si         1 MOL        2.1000 ****
1451 Si          5.740000   24.610000   18.060000 Si         1 MOL        2.1000 ****
1452 Si          3.100000   23.210000   18.060000 Si         1 MOL        2.1000 ****
1453  H          3.170000   21.830000   21.660000  H         1 MOL        0.4250 ****
1454  H          5.750000   25.790000   21.490000  H         1 MOL        0.4250 ****
1455  H          4.790000   30.430000   19.950000  H         1 MOL        0.4250 ****
1456  H          2.250000   26.100000   20.210000  H         1 MOL        0.4250 ****
1457  O          4.860000   21.690000   24.070000  O         1 MOL       -1.0500 ****
1458  O          3.540000   23.880000   24.070000  O         1 MOL       -1.0500 ****
1459  O          6.180000   23.930000   24.070000  O         1 MOL       -1.0500 ****
1460 Oh          2.220000   21.660000   21.850000  O         1 MOL       -0.9500 ****
1461Omg          4.860000   23.250000   21.850000  O         1 MOL       -1.1808 ****
1462Omg          2.220000   24.520000   21.850000  O         1 MOL       -1.1808 ****
1463  O          2.220000   26.060000   24.070000  O         1 MOL       -1.0500 ****
1464  O          6.180000   28.260000   24.070000  O         1 MOL       -1.0500 ****
1465  O          3.540000   28.250000   24.070000  O         1 MOL       -1.0500 ****
1466Ohmg          4.860000   26.070000   21.850000  O         1 MOL       -1.0809 ****
1467  O          2.220000   27.680000   21.850000  O         1 MOL       -1.0500 ****
1468  O          4.860000   28.920000   21.850000  O         1 MOL       -1.0500 ****
1469  O          3.100000   30.450000   17.510000  O         1 MOL       -1.0500 ****
1470  O          4.420000   28.200000   17.510000  O         1 MOL       -1.0500 ****
1471  O          1.780000   28.310000   17.510000  O         1 MOL       -1.0500 ****
1472 Oh          5.740000   30.320000   19.730000  O         1 MOL       -0.9500 ****
1473  O          3.100000   28.840000   19.730000  O         1 MOL       -1.0500 ****
1474  O          5.740000   27.600000   19.730000  O         1 MOL       -1.0500 ****
1475  O          5.740000   26.050000   17.510000  O         1 MOL       -1.0500 ****
1476  O          1.780000   23.870000   17.510000  O         1 MOL       -1.0500 ****
1477  O          4.420000   23.900000   17.510000  O         1 MOL       -1.0500 ****
1478Ohmg          3.100000   26.080000   19.730000  O         1 MOL       -1.0809 ****
1479Omg          5.740000   24.660000   19.730000  O         1 MOL       -1.1808 ****
1480Omg          3.100000   23.350000   19.730000  O         1 MOL       -1.1808 ****
1481 Al         11.900000   23.200000   20.790000 Al         1 MOL        1.5750 ****
1482Mgo         11.900000   20.210000   20.790000 Mg         1 MOL        1.3600 ****
1483 Al         14.540000   27.630000   20.790000 Al         1 MOL        1.5750 ****
1484 Al         14.540000   24.530000   20.790000 Al         1 MOL        1.5750 ****
1485 Si         10.140000   23.180000   23.520000 Si         1 MOL        2.1000 ****
1486 Si          7.500000   24.600000   23.520000 Si         1 MOL        2.1000 ****
1487 Si          7.500000   27.490000   23.520000 Si         1 MOL        2.1000 ****
1488 Si         10.140000   29.000000   23.520000 Si         1 MOL        2.1000 ****
1489 Si          8.380000   28.960000   18.060000 Si         1 MOL        2.1000 ****
1490 Si         11.020000   27.530000   18.060000 Si         1 MOL        2.1000 ****
1491 Si         11.020000   24.610000   18.060000 Si         1 MOL        2.1000 ****
1492 Si          8.380000   23.210000   18.060000 Si         1 MOL        2.1000 ****
1493  H          8.450000   21.830000   21.660000  H         1 MOL        0.4250 ****
1494  H         11.030000   25.790000   21.490000  H         1 MOL        0.4250 ****
1495  H         10.070000   30.430000   19.950000  H         1 MOL        0.4250 ****
1496  H          7.530000   26.100000   20.210000  H         1 MOL        0.4250 ****
1497  O         10.140000   21.690000   24.070000  O         1 MOL       -1.0500 ****
1498  O          8.820000   23.880000   24.070000  O         1 MOL       -1.0500 ****
1499  O         11.460000   23.930000   24.070000  O         1 MOL       -1.0500 ****
1500 Oh          7.500000   21.660000   21.850000  O         1 MOL       -0.9500 ****
1501  O         10.140000   23.250000   21.850000  O         1 MOL       -1.0500 ****
1502  O          7.500000   24.520000   21.850000  O         1 MOL       -1.0500 ****
1503  O          7.500000   26.060000   24.070000  O         1 MOL       -1.0500 ****
1504  O         11.460000   28.260000   24.070000  O         1 MOL       -1.0500 ****
1505  O          8.820000   28.250000   24.070000  O         1 MOL       -1.0500 ****
1506Ohmg         10.140000   26.070000   21.850000  O         1 MOL       -1.0809 ****
1507Omg          7.500000   27.680000   21.850000  O         1 MOL       -1.1808 ****
1508Omg         10.140000   28.920000   21.850000  O         1 MOL       -1.1808 ****
1509  O          8.380000   30.450000   17.510000  O         1 MOL       -1.0500 ****
1510  O          9.700000   28.200000   17.510000  O         1 MOL       -1.0500 ****
1511  O          7.060000   28.310000   17.510000  O         1 MOL       -1.0500 ****
1512 Oh         11.020000   30.320000   19.730000  O         1 MOL       -0.9500 ****
1513Omg          8.380000   28.840000   19.730000  O         1 MOL       -1.1808 ****
1514Omg         11.020000   27.600000   19.730000  O         1 MOL       -1.1808 ****
1515  O         11.020000   26.050000   17.510000  O         1 MOL       -1.0500 ****
1516  O          7.060000   23.870000   17.510000  O         1 MOL       -1.0500 ****
1517  O          9.700000   23.900000   17.510000  O         1 MOL       -1.0500 ****
1518Ohmg          8.380000   26.080000   19.730000  O         1 MOL       -1.0809 ****
1519  O         11.020000   24.660000   19.730000  O         1 MOL       -1.0500 ****
1520  O          8.380000   23.350000   19.730000  O         1 MOL       -1.0500 ****
1521 Al         17.180000   23.200000   20.790000 Al         1 MOL        1.5750 ****
1522 Al         17.180000   20.210000   20.790000 Al         1 MOL        1.5750 ****
1523 Al         19.820000   27.630000   20.790000 Al         1 MOL        1.5750 ****
1524 Al         19.820000   24.530000   20.790000 Al         1 MOL        1.5750 ****
1525 Si         15.420000   23.180000   23.520000 Si         1 MOL        2.1000 ****
1526 Si         12.780000   24.600000   23.520000 Si         1 MOL        2.1000 ****
1527 Si         12.780000   27.490000   23.520000 Si         1 MOL        2.1000 ****
1528 Si         15.420000   29.000000   23.520000 Si         1 MOL        2.1000 ****
1529 Si         13.660000   28.960000   18.060000 Si         1 MOL        2.1000 ****
1530 Si         16.300000   27.530000   18.060000 Si         1 MOL        2.1000 ****
1531 Si         16.300000   24.610000   18.060000 Si         1 MOL        2.1000 ****
1532 Si         13.660000   23.210000   18.060000 Si         1 MOL        2.1000 ****
1533  H         13.730000   21.830000   21.660000  H         1 MOL        0.4250 ****
1534  H         16.310000   25.790000   21.490000  H         1 MOL        0.4250 ****
1535  H         15.350000   30.430000   19.950000  H         1 MOL        0.4250 ****
1536  H         12.810000   26.100000   20.210000  H         1 MOL        0.4250 ****
1537  O         15.420000   21.690000   24.070000  O         1 MOL       -1.0500 ****
1538  O         14.100000   23.880000   24.070000  O         1 MOL       -1.0500 ****
1539  O         16.740000   23.930000   24.070000  O         1 MOL       -1.0500 ****
1540Ohmg         12.780000   21.660000   21.850000  O         1 MOL       -1.0809 ****
1541  O         15.420000   23.250000   21.850000  O         1 MOL       -1.0500 ****
1542  O         12.780000   24.520000   21.850000  O         1 MOL       -1.0500 ****
1543  O         12.780000   26.060000   24.070000  O         1 MOL       -1.0500 ****
1544  O         16.740000   28.260000   24.070000  O         1 MOL       -1.0500 ****
1545  O         14.100000   28.250000   24.070000  O         1 MOL       -1.0500 ****
1546 Oh         15.420000   26.070000   21.850000  O         1 MOL       -0.9500 ****
1547  O         12.780000   27.680000   21.850000  O         1 MOL       -1.0500 ****
1548Omg         15.420000   28.920000   21.850000  O         1 MOL       -1.1808 ****
1549  O         13.660000   30.450000   17.510000  O         1 MOL       -1.0500 ****
1550  O         14.980000   28.200000   17.510000  O         1 MOL       -1.0500 ****
1551  O         12.340000   28.310000   17.510000  O         1 MOL       -1.0500 ****
1552Ohmg         16.300000   30.320000   19.730000  O         1 MOL       -1.0809 ****
1553  O         13.660000   28.840000   19.730000  O         1 MOL       -1.0500 ****
1554Omg         16.300000   27.600000   19.730000  O         1 MOL       -1.1808 ****
1555  O         16.300000   26.050000   17.510000  O         1 MOL       -1.0500 ****
1556  O         12.340000   23.870000   17.510000  O         1 MOL       -1.0500 ****
1557  O         14.980000   23.900000   17.510000  O         1 MOL       -1.0500 ****
1558 Oh         13.660000   26.080000   19.730000  O         1 MOL       -0.9500 ****
1559  O         16.300000   24.660000   19.730000  O         1 MOL       -1.0500 ****
1560  O         13.660000   23.350000   19.730000  O         1 MOL       -1.0500 ****
1561 Al         22.460000   23.200000   20.790000 Al         1 MOL        1.5750 ****
1562Mgo         22.460000   20.210000   20.790000 Mg         1 MOL        1.3600 ****
1563 Al         25.100000   27.630000   20.790000 Al         1 MOL        1.5750 ****
1564 Al         25.100000   24.530000   20.790000 Al         1 MOL        1.5750 ****
1565 Si         20.700000   23.180000   23.520000 Si         1 MOL        2.1000 ****
1566 Si         18.060000   24.600000   23.520000 Si         1 MOL        2.1000 ****
1567 Si         18.060000   27.490000   23.520000 Si         1 MOL        2.1000 ****
1568 Si         20.700000   29.000000   23.520000 Si         1 MOL        2.1000 ****
1569 Si         18.940000   28.960000   18.060000 Si         1 MOL        2.1000 ****
1570 Si         21.580000   27.530000   18.060000 Si         1 MOL        2.1000 ****
1571 Si         21.580000   24.610000   18.060000 Si         1 MOL        2.1000 ****
1572 Si         18.940000   23.210000   18.060000 Si         1 MOL        2.1000 ****
1573  H         19.010000   21.830000   21.660000  H         1 MOL        0.4250 ****
1574  H         21.590000   25.790000   21.490000  H         1 MOL        0.4250 ****
1575  H         20.630000   30.430000   19.950000  H         1 MOL        0.4250 ****
1576  H         18.090000   26.100000   20.210000  H         1 MOL        0.4250 ****
1577  O         20.700000   21.690000   24.070000  O         1 MOL       -1.0500 ****
1578  O         19.380000   23.880000   24.070000  O         1 MOL       -1.0500 ****
1579  O         22.020000   23.930000   24.070000  O         1 MOL       -1.0500 ****
1580 Oh         18.060000   21.660000   21.850000  O         1 MOL       -0.9500 ****
1581  O         20.700000   23.250000   21.850000  O         1 MOL       -1.0500 ****
1582  O         18.060000   24.520000   21.850000  O         1 MOL       -1.0500 ****
1583  O         18.060000   26.060000   24.070000  O         1 MOL       -1.0500 ****
1584  O         22.020000   28.260000   24.070000  O         1 MOL       -1.0500 ****
1585  O         19.380000   28.250000   24.070000  O         1 MOL       -1.0500 ****
1586 Oh         20.700000   26.070000   21.850000  O         1 MOL       -0.9500 ****
1587Omg         18.060000   27.680000   21.850000  O         1 MOL       -1.1808 ****
1588  O         20.700000   28.920000   21.850000  O         1 MOL       -1.0500 ****
1589  O         18.940000   30.450000   17.510000  O         1 MOL       -1.0500 ****
1590  O         20.260000   28.200000   17.510000  O         1 MOL       -1.0500 ****
1591  O         17.620000   28.310000   17.510000  O         1 MOL       -1.0500 ****
1592Ohmg         21.580000   30.320000   19.730000  O         1 MOL       -1.0809 ****
1593Omg         18.940000   28.840000   19.730000  O         1 MOL       -1.1808 ****
1594  O         21.580000   27.600000   19.730000  O         1 MOL       -1.0500 ****
1595  O         21.580000   26.050000   17.510000  O         1 MOL       -1.0500 ****
1596  O         17.620000   23.870000   17.510000  O         1 MOL       -1.0500 ****
1597  O         20.260000   23.900000   17.510000  O         1 MOL       -1.0500 ****
1598 Oh         18.940000   26.080000   19.730000  O         1 MOL       -0.9500 ****
1599  O         21.580000   24.660000   19.730000  O         1 MOL       -1.0500 ****
1600  O         18.940000   23.350000   19.730000  O         1 MOL       -1.0500 ****
1601 Al         27.740000   23.200000   20.790000 Al         1 MOL        1.5750 ****
1602 Al         27.740000   20.210000   20.790000 Al         1 MOL        1.5750 ****
1603Mgo         30.380000   27.630000   20.790000 Mg         1 MOL        1.3600 ****
1604 Al         30.380000   24.530000   20.790000 Al         1 MOL        1.5750 ****
1605 Si         25.980000   23.180000   23.520000 Si         1 MOL        2.1000 ****
1606 Si         23.340000   24.600000   23.520000 Si         1 MOL        2.1000 ****
1607 Si         23.340000   27.490000   23.520000 Si         1 MOL        2.1000 ****
1608 Si         25.980000   29.000000   23.520000 Si         1 MOL        2.1000 ****
1609 Si         24.220000   28.960000   18.060000 Si         1 MOL        2.1000 ****
1610 Si         26.860000   27.530000   18.060000 Si         1 MOL        2.1000 ****
1611 Si         26.860000   24.610000   18.060000 Si         1 MOL        2.1000 ****
1612 Si         24.220000   23.210000   18.060000 Si         1 MOL        2.1000 ****
1613  H         24.290000   21.830000   21.660000  H         1 MOL        0.4250 ****
1614  H         26.870000   25.790000   21.490000  H         1 MOL        0.4250 ****
1615  H         25.910000   30.430000   19.950000  H         1 MOL        0.4250 ****
1616  H         23.370000   26.100000   20.210000  H         1 MOL        0.4250 ****
1617  O         25.980000   21.690000   24.070000  O         1 MOL       -1.0500 ****
1618  O         24.660000   23.880000   24.070000  O         1 MOL       -1.0500 ****
1619  O         27.300000   23.930000   24.070000  O         1 MOL       -1.0500 ****
1620Ohmg         23.340000   21.660000   21.850000  O         1 MOL       -1.0809 ****
1621  O         25.980000   23.250000   21.850000  O         1 MOL       -1.0500 ****
1622  O         23.340000   24.520000   21.850000  O         1 MOL       -1.0500 ****
1623  O         23.340000   26.060000   24.070000  O         1 MOL       -1.0500 ****
1624  O         27.300000   28.260000   24.070000  O         1 MOL       -1.0500 ****
1625  O         24.660000   28.250000   24.070000  O         1 MOL       -1.0500 ****
1626 Oh         25.980000   26.070000   21.850000  O         1 MOL       -0.9500 ****
1627  O         23.340000   27.680000   21.850000  O         1 MOL       -1.0500 ****
1628  O         25.980000   28.920000   21.850000  O         1 MOL       -1.0500 ****
1629  O         24.220000   30.450000   17.510000  O         1 MOL       -1.0500 ****
1630  O         25.540000   28.200000   17.510000  O         1 MOL       -1.0500 ****
1631  O         22.900000   28.310000   17.510000  O         1 MOL       -1.0500 ****
1632 Oh         26.860000   30.320000   19.730000  O         1 MOL       -0.9500 ****
1633  O         24.220000   28.840000   19.730000  O         1 MOL       -1.0500 ****
1634  O         26.860000   27.600000   19.730000  O         1 MOL       -1.0500 ****
1635  O         26.860000   26.050000   17.510000  O         1 MOL       -1.0500 ****
1636  O         22.900000   23.870000   17.510000  O         1 MOL       -1.0500 ****
1637  O         25.540000   23.900000   17.510000  O         1 MOL       -1.0500 ****
1638 Oh         24.220000   26.080000   19.730000  O         1 MOL       -0.9500 ****
1639  O         26.860000   24.660000   19.730000  O         1 MOL       -1.0500 ****
1640  O         24.220000   23.350000   19.730000  O         1 MOL       -1.0500 ****
1641 Al         33.020000   23.200000   20.790000 Al         1 MOL        1.5750 ****
1642 Al         33.020000   20.210000   20.790000 Al         1 MOL        1.5750 ****
1643 Al         35.660000   27.630000   20.790000 Al         1 MOL        1.5750 ****
1644Mgo         35.660000   24.530000   20.790000 Mg         1 MOL        1.3600 ****
1645 Si         31.260000   23.180000   23.520000 Si         1 MOL        2.1000 ****
1646 Si         28.620000   24.600000   23.520000 Si         1 MOL        2.1000 ****
1647 Si         28.620000   27.490000   23.520000 Si         1 MOL        2.1000 ****
1648 Si         31.260000   29.000000   23.520000 Si         1 MOL        2.1000 ****
1649 Si         29.500000   28.960000   18.060000 Si         1 MOL        2.1000 ****
1650 Si         32.140000   27.530000   18.060000 Si         1 MOL        2.1000 ****
1651 Si         32.140000   24.610000   18.060000 Si         1 MOL        2.1000 ****
1652 Si         29.500000   23.210000   18.060000 Si         1 MOL        2.1000 ****
1653  H         29.570000   21.830000   21.660000  H         1 MOL        0.4250 ****
1654  H         32.150000   25.790000   21.490000  H         1 MOL        0.4250 ****
1655  H         31.190000   30.430000   19.950000  H         1 MOL        0.4250 ****
1656  H         28.650000   26.100000   20.210000  H         1 MOL        0.4250 ****
1657  O         31.260000   21.690000   24.070000  O         1 MOL       -1.0500 ****
1658  O         29.940000   23.880000   24.070000  O         1 MOL       -1.0500 ****
1659  O         32.580000   23.930000   24.070000  O         1 MOL       -1.0500 ****
1660 Oh         28.620000   21.660000   21.850000  O         1 MOL       -0.9500 ****
1661  O         31.260000   23.250000   21.850000  O         1 MOL       -1.0500 ****
1662  O         28.620000   24.520000   21.850000  O         1 MOL       -1.0500 ****
1663  O         28.620000   26.060000   24.070000  O         1 MOL       -1.0500 ****
1664  O         32.580000   28.260000   24.070000  O         1 MOL       -1.0500 ****
1665  O         29.940000   28.250000   24.070000  O         1 MOL       -1.0500 ****
1666Ohmg         31.260000   26.070000   21.850000  O         1 MOL       -1.0809 ****
1667Omg         28.620000   27.680000   21.850000  O         1 MOL       -1.1808 ****
1668Omg         31.260000   28.920000   21.850000  O         1 MOL       -1.1808 ****
1669  O         29.500000   30.450000   17.510000  O         1 MOL       -1.0500 ****
1670  O         30.820000   28.200000   17.510000  O         1 MOL       -1.0500 ****
1671  O         28.180000   28.310000   17.510000  O         1 MOL       -1.0500 ****
1672 Oh         32.140000   30.320000   19.730000  O         1 MOL       -0.9500 ****
1673Omg         29.500000   28.840000   19.730000  O         1 MOL       -1.1808 ****
1674Omg         32.140000   27.600000   19.730000  O         1 MOL       -1.1808 ****
1675  O         32.140000   26.050000   17.510000  O         1 MOL       -1.0500 ****
1676  O         28.180000   23.870000   17.510000  O         1 MOL       -1.0500 ****
1677  O         30.820000   23.900000   17.510000  O         1 MOL       -1.0500 ****
1678Ohmg         29.500000   26.080000   19.730000  O         1 MOL       -1.0809 ****
1679  O         32.140000   24.660000   19.730000  O         1 MOL       -1.0500 ****
1680  O         29.500000   23.350000   19.730000  O         1 MOL       -1.0500 ****
1681 Al          6.620000   32.340000   20.790000 Al         1 MOL        1.5750 ****
1682 Al          6.620000   29.350000   20.790000 Al         1 MOL        1.5750 ****
1683 Al          9.260000   36.770000   20.790000 Al         1 MOL        1.5750 ****
1684Mgo          9.260000   33.670000   20.790000 Mg         1 MOL        1.3600 ****
1685 Si          4.860000   32.320000   23.520000 Si         1 MOL        2.1000 ****
1686 Si          2.220000   33.740000   23.520000 Si         1 MOL        2.1000 ****
1687 Si          2.220000   36.630000   23.520000 Si         1 MOL        2.1000 ****
1688 Si          4.860000   38.140000   23.520000 Si         1 MOL        2.1000 ****
1689 Si          3.100000   38.100000   18.060000 Si         1 MOL        2.1000 ****
1690 Si          5.740000   36.670000   18.060000 Si         1 MOL        2.1000 ****
1691 Si          5.740000   33.750000   18.060000 Si         1 MOL        2.1000 ****
1692 Si          3.100000   32.350000   18.060000 Si         1 MOL        2.1000 ****
1693  H          3.170000   30.970000   21.660000  H         1 MOL        0.4250 ****
1694  H          5.750000   34.930000   21.490000  H         1 MOL        0.4250 ****
1695  H          4.790000   39.570000   19.950000  H         1 MOL        0.4250 ****
1696  H          2.250000   35.240000   20.210000  H         1 MOL        0.4250 ****
1697  O          4.860000   30.830000   24.070000  O         1 MOL       -1.0500 ****
1698  O          3.540000   33.020000   24.070000  O         1 MOL       -1.0500 ****
1699  O          6.180000   33.070000   24.070000  O         1 MOL       -1.0500 ****
1700 Oh          2.220000   30.800000   21.850000  O         1 MOL       -0.9500 ****
1701  O          4.860000   32.390000   21.850000  O         1 MOL       -1.0500 ****
1702  O          2.220000   33.660000   21.850000  O         1 MOL       -1.0500 ****
1703  O          2.220000   35.200000   24.070000  O         1 MOL       -1.0500 ****
1704  O          6.180000   37.400000   24.070000  O         1 MOL       -1.0500 ****
1705  O          3.540000   37.390000   24.070000  O         1 MOL       -1.0500 ****
1706 Oh          4.860000   35.210000   21.850000  O         1 MOL       -0.9500 ****
1707  O          2.220000   36.820000   21.850000  O         1 MOL       -1.0500 ****
1708  O          4.860000   38.060000   21.850000  O         1 MOL       -1.0500 ****
1709  O          3.100000   39.590000   17.510000  O         1 MOL       -1.0500 ****
1710  O          4.420000   37.340000   17.510000  O         1 MOL       -1.0500 ****
1711  O          1.780000   37.450000   17.510000  O         1 MOL       -1.0500 ****
1712Ohmg          5.740000   39.460000   19.730000  O         1 MOL       -1.0809 ****
1713  O          3.100000   37.980000   19.730000  O         1 MOL       -1.0500 ****
1714  O          5.740000   36.740000   19.730000  O         1 MOL       -1.0500 ****
1715  O          5.740000   35.190000   17.510000  O         1 MOL       -1.0500 ****
1716  O          1.780000   33.010000   17.510000  O         1 MOL       -1.0500 ****
1717  O          4.420000   33.040000   17.510000  O         1 MOL       -1.0500 ****
1718 Oh          3.100000   35.220000   19.730000  O         1 MOL       -0.9500 ****
1719  O          5.740000   33.800000   19.730000  O         1 MOL       -1.0500 ****
1720  O          3.100000   32.490000   19.730000  O         1 MOL       -1.0500 ****
1721 Al         11.900000   32.340000   20.790000 Al         1 MOL        1.5750 ****
1722 Al         11.900000   29.350000   20.790000 Al         1 MOL        1.5750 ****
1723 Al         14.540000   36.770000   20.790000 Al         1 MOL        1.5750 ****
1724 Al         14.540000   33.670000   20.790000 Al         1 MOL        1.5750 ****
1725 Si         10.140000   32.320000   23.520000 Si         1 MOL        2.1000 ****
1726 Si          7.500000   33.740000   23.520000 Si         1 MOL        2.1000 ****
1727 Si          7.500000   36.630000   23.520000 Si         1 MOL        2.1000 ****
1728 Si         10.140000   38.140000   23.520000 Si         1 MOL        2.1000 ****
1729 Si          8.380000   38.100000   18.060000 Si         1 MOL        2.1000 ****
1730 Si         11.020000   36.670000   18.060000 Si         1 MOL        2.1000 ****
1731 Si         11.020000   33.750000   18.060000 Si         1 MOL        2.1000 ****
1732 Si          8.380000   32.350000   18.060000 Si         1 MOL        2.1000 ****
1733  H          8.450000   30.970000   21.660000  H         1 MOL        0.4250 ****
1734  H         11.030000   34.930000   21.490000  H         1 MOL        0.4250 ****
1735  H         10.070000   39.570000   19.950000  H         1 MOL        0.4250 ****
1736  H          7.530000   35.240000   20.210000  H         1 MOL        0.4250 ****
1737  O         10.140000   30.830000   24.070000  O         1 MOL       -1.0500 ****
1738  O          8.820000   33.020000   24.070000  O         1 MOL       -1.0500 ****
1739  O         11.460000   33.070000   24.070000  O         1 MOL       -1.0500 ****
1740 Oh          7.500000   30.800000   21.850000  O         1 MOL       -0.9500 ****
1741Omg         10.140000   32.390000   21.850000  O         1 MOL       -1.1808 ****
1742Omg          7.500000   33.660000   21.850000  O         1 MOL       -1.1808 ****
1743  O          7.500000   35.200000   24.070000  O         1 MOL       -1.0500 ****
1744  O         11.460000   37.400000   24.070000  O         1 MOL       -1.0500 ****
1745  O          8.820000   37.390000   24.070000  O         1 MOL       -1.0500 ****
1746Ohmg         10.140000   35.210000   21.850000  O         1 MOL       -1.0809 ****
1747  O          7.500000   36.820000   21.850000  O         1 MOL       -1.0500 ****
1748  O         10.140000   38.060000   21.850000  O         1 MOL       -1.0500 ****
1749  O          8.380000   39.590000   17.510000  O         1 MOL       -1.0500 ****
1750  O          9.700000   37.340000   17.510000  O         1 MOL       -1.0500 ****
1751  O          7.060000   37.450000   17.510000  O         1 MOL       -1.0500 ****
1752 Oh         11.020000   39.460000   19.730000  O         1 MOL       -0.9500 ****
1753  O          8.380000   37.980000   19.730000  O         1 MOL       -1.0500 ****
1754  O         11.020000   36.740000   19.730000  O         1 MOL       -1.0500 ****
1755  O         11.020000   35.190000   17.510000  O         1 MOL       -1.0500 ****
1756  O          7.060000   33.010000   17.510000  O         1 MOL       -1.0500 ****
1757  O          9.700000   33.040000   17.510000  O         1 MOL       -1.0500 ****
1758Ohmg          8.380000   35.220000   19.730000  O         1 MOL       -1.0809 ****
1759Omg         11.020000   33.800000   19.730000  O         1 MOL       -1.1808 ****
1760Omg          8.380000   32.490000   19.730000  O         1 MOL       -1.1808 ****
1761 Al         17.180000   32.340000   20.790000 Al         1 MOL        1.5750 ****
1762Mgo         17.180000   29.350000   20.790000 Mg         1 MOL        1.3600 ****
1763 Al         19.820000   36.770000   20.790000 Al         1 MOL        1.5750 ****
1764 Al         19.820000   33.670000   20.790000 Al         1 MOL        1.5750 ****
1765 Si         15.420000   32.320000   23.520000 Si         1 MOL        2.1000 ****
1766 Si         12.780000   33.740000   23.520000 Si         1 MOL        2.1000 ****
1767 Si         12.780000   36.630000   23.520000 Si         1 MOL        2.1000 ****
1768 Si         15.420000   38.140000   23.520000 Si         1 MOL        2.1000 ****
1769 Si         13.660000   38.100000   18.060000 Si         1 MOL        2.1000 ****
1770 Si         16.300000   36.670000   18.060000 Si         1 MOL        2.1000 ****
1771 Si         16.300000   33.750000   18.060000 Si         1 MOL        2.1000 ****
1772 Si         13.660000   32.350000   18.060000 Si         1 MOL        2.1000 ****
1773  H         13.730000   30.970000   21.660000  H         1 MOL        0.4250 ****
1774  H         16.310000   34.930000   21.490000  H         1 MOL        0.4250 ****
1775  H         15.350000   39.570000   19.950000  H         1 MOL        0.4250 ****
1776  H         12.810000   35.240000   20.210000  H         1 MOL        0.4250 ****
1777  O         15.420000   30.830000   24.070000  O         1 MOL       -1.0500 ****
1778  O         14.100000   33.020000   24.070000  O         1 MOL       -1.0500 ****
1779  O         16.740000   33.070000   24.070000  O         1 MOL       -1.0500 ****
1780 Oh         12.780000   30.800000   21.850000  O         1 MOL       -0.9500 ****
1781  O         15.420000   32.390000   21.850000  O         1 MOL       -1.0500 ****
1782  O         12.780000   33.660000   21.850000  O         1 MOL       -1.0500 ****
1783  O         12.780000   35.200000   24.070000  O         1 MOL       -1.0500 ****
1784  O         16.740000   37.400000   24.070000  O         1 MOL       -1.0500 ****
1785  O         14.100000   37.390000   24.070000  O         1 MOL       -1.0500 ****
1786 Oh         15.420000   35.210000   21.850000  O         1 MOL       -0.9500 ****
1787  O         12.780000   36.820000   21.850000  O         1 MOL       -1.0500 ****
1788Omg         15.420000   38.060000   21.850000  O         1 MOL       -1.1808 ****
1789  O         13.660000   39.590000   17.510000  O         1 MOL       -1.0500 ****
1790  O         14.980000   37.340000   17.510000  O         1 MOL       -1.0500 ****
1791  O         12.340000   37.450000   17.510000  O         1 MOL       -1.0500 ****
1792Ohmg         16.300000   39.460000   19.730000  O         1 MOL       -1.0809 ****
1793  O         13.660000   37.980000   19.730000  O         1 MOL       -1.0500 ****
1794Omg         16.300000   36.740000   19.730000  O         1 MOL       -1.1808 ****
1795  O         16.300000   35.190000   17.510000  O         1 MOL       -1.0500 ****
1796  O         12.340000   33.010000   17.510000  O         1 MOL       -1.0500 ****
1797  O         14.980000   33.040000   17.510000  O         1 MOL       -1.0500 ****
1798 Oh         13.660000   35.220000   19.730000  O         1 MOL       -0.9500 ****
1799  O         16.300000   33.800000   19.730000  O         1 MOL       -1.0500 ****
1800  O         13.660000   32.490000   19.730000  O         1 MOL       -1.0500 ****
1801Mgo         22.460000   32.340000   20.790000 Mg         1 MOL        1.3600 ****
1802 Al         22.460000   29.350000   20.790000 Al         1 MOL        1.5750 ****
1803 Al         25.100000   36.770000   20.790000 Al         1 MOL        1.5750 ****
1804 Al         25.100000   33.670000   20.790000 Al         1 MOL        1.5750 ****
1805 Si         20.700000   32.320000   23.520000 Si         1 MOL        2.1000 ****
1806 Si         18.060000   33.740000   23.520000 Si         1 MOL        2.1000 ****
1807 Si         18.060000   36.630000   23.520000 Si         1 MOL        2.1000 ****
1808 Si         20.700000   38.140000   23.520000 Si         1 MOL        2.1000 ****
1809 Si         18.940000   38.100000   18.060000 Si         1 MOL        2.1000 ****
1810 Si         21.580000   36.670000   18.060000 Si         1 MOL        2.1000 ****
1811 Si         21.580000   33.750000   18.060000 Si         1 MOL        2.1000 ****
1812 Si         18.940000   32.350000   18.060000 Si         1 MOL        2.1000 ****
1813  H         19.010000   30.970000   21.660000  H         1 MOL        0.4250 ****
1814  H         21.590000   34.930000   21.490000  H         1 MOL        0.4250 ****
1815  H         20.630000   39.570000   19.950000  H         1 MOL        0.4250 ****
1816  H         18.090000   35.240000   20.210000  H         1 MOL        0.4250 ****
1817  O         20.700000   30.830000   24.070000  O         1 MOL       -1.0500 ****
1818  O         19.380000   33.020000   24.070000  O         1 MOL       -1.0500 ****
1819  O         22.020000   33.070000   24.070000  O         1 MOL       -1.0500 ****
1820Ohmg         18.060000   30.800000   21.850000  O         1 MOL       -1.0809 ****
1821Omg         20.700000   32.390000   21.850000  O         1 MOL       -1.1808 ****
1822  O         18.060000   33.660000   21.850000  O         1 MOL       -1.0500 ****
1823  O         18.060000   35.200000   24.070000  O         1 MOL       -1.0500 ****
1824  O         22.020000   37.400000   24.070000  O         1 MOL       -1.0500 ****
1825  O         19.380000   37.390000   24.070000  O         1 MOL       -1.0500 ****
1826 Oh         20.700000   35.210000   21.850000  O         1 MOL       -0.9500 ****
1827Omg         18.060000   36.820000   21.850000  O         1 MOL       -1.1808 ****
1828  O         20.700000   38.060000   21.850000  O         1 MOL       -1.0500 ****
1829  O         18.940000   39.590000   17.510000  O         1 MOL       -1.0500 ****
1830  O         20.260000   37.340000   17.510000  O         1 MOL       -1.0500 ****
1831  O         17.620000   37.450000   17.510000  O         1 MOL       -1.0500 ****
1832 Oh         21.580000   39.460000   19.730000  O         1 MOL       -0.9500 ****
1833Omg         18.940000   37.980000   19.730000  O         1 MOL       -1.1808 ****
1834  O         21.580000   36.740000   19.730000  O         1 MOL       -1.0500 ****
1835  O         21.580000   35.190000   17.510000  O         1 MOL       -1.0500 ****
1836  O         17.620000   33.010000   17.510000  O         1 MOL       -1.0500 ****
1837  O         20.260000   33.040000   17.510000  O         1 MOL       -1.0500 ****
1838 Oh         18.940000   35.220000   19.730000  O         1 MOL       -0.9500 ****
1839Omg         21.580000   33.800000   19.730000  O         1 MOL       -1.1808 ****
1840  O         18.940000   32.490000   19.730000  O         1 MOL       -1.0500 ****
1841 Al         27.740000   32.340000   20.790000 Al         1 MOL        1.5750 ****
1842 Al         27.740000   29.350000   20.790000 Al         1 MOL        1.5750 ****
1843 Al         30.380000   36.770000   20.790000 Al         1 MOL        1.5750 ****
1844Mgo         30.380000   33.670000   20.790000 Mg         1 MOL        1.3600 ****
1845 Si         25.980000   32.320000   23.520000 Si         1 MOL        2.1000 ****
1846 Si         23.340000   33.740000   23.520000 Si         1 MOL        2.1000 ****
1847 Si         23.340000   36.630000   23.520000 Si         1 MOL        2.1000 ****
1848 Si         25.980000   38.140000   23.520000 Si         1 MOL        2.1000 ****
1849 Si         24.220000   38.100000   18.060000 Si         1 MOL        2.1000 ****
1850 Si         26.860000   36.670000   18.060000 Si         1 MOL        2.1000 ****
1851 Si         26.860000   33.750000   18.060000 Si         1 MOL        2.1000 ****
1852 Si         24.220000   32.350000   18.060000 Si         1 MOL        2.1000 ****
1853  H         24.290000   30.970000   21.660000  H         1 MOL        0.4250 ****
1854  H         26.870000   34.930000   21.490000  H         1 MOL        0.4250 ****
1855  H         25.910000   39.570000   19.950000  H         1 MOL        0.4250 ****
1856  H         23.370000   35.240000   20.210000  H         1 MOL        0.4250 ****
1857  O         25.980000   30.830000   24.070000  O         1 MOL       -1.0500 ****
1858  O         24.660000   33.020000   24.070000  O         1 MOL       -1.0500 ****
1859  O         27.300000   33.070000   24.070000  O         1 MOL       -1.0500 ****
1860Ohmg         23.340000   30.800000   21.850000  O         1 MOL       -1.0809 ****
1861  O         25.980000   32.390000   21.850000  O         1 MOL       -1.0500 ****
1862Omg         23.340000   33.660000   21.850000  O         1 MOL       -1.1808 ****
1863  O         23.340000   35.200000   24.070000  O         1 MOL       -1.0500 ****
1864  O         27.300000   37.400000   24.070000  O         1 MOL       -1.0500 ****
1865  O         24.660000   37.390000   24.070000  O         1 MOL       -1.0500 ****
1866 Oh         25.980000   35.210000   21.850000  O         1 MOL       -0.9500 ****
1867  O         23.340000   36.820000   21.850000  O         1 MOL       -1.0500 ****
1868  O         25.980000   38.060000   21.850000  O         1 MOL       -1.0500 ****
1869  O         24.220000   39.590000   17.510000  O         1 MOL       -1.0500 ****
1870  O         25.540000   37.340000   17.510000  O         1 MOL       -1.0500 ****
1871  O         22.900000   37.450000   17.510000  O         1 MOL       -1.0500 ****
1872 Oh         26.860000   39.460000   19.730000  O         1 MOL       -0.9500 ****
1873  O         24.220000   37.980000   19.730000  O         1 MOL       -1.0500 ****
1874  O         26.860000   36.740000   19.730000  O         1 MOL       -1.0500 ****
1875  O         26.860000   35.190000   17.510000  O         1 MOL       -1.0500 ****
1876  O         22.900000   33.010000   17.510000  O         1 MOL       -1.0500 ****
1877  O         25.540000   33.040000   17.510000  O         1 MOL       -1.0500 ****
1878 Oh         24.220000   35.220000   19.730000  O         1 MOL       -0.9500 ****
1879  O         26.860000   33.800000   19.730000  O         1 MOL       -1.0500 ****
1880Omg         24.220000   32.490000   19.730000  O         1 MOL       -1.1808 ****
1881 Al         33.020000   32.340000   20.790000 Al         1 MOL        1.5750 ****
1882 Al         33.020000   29.350000   20.790000 Al         1 MOL        1.5750 ****
1883 Al         35.660000   36.770000   20.790000 Al         1 MOL        1.5750 ****
1884 Al         35.660000   33.670000   20.790000 Al         1 MOL        1.5750 ****
1885 Si         31.260000   32.320000   23.520000 Si         1 MOL        2.1000 ****
1886 Si         28.620000   33.740000   23.520000 Si         1 MOL        2.1000 ****
1887 Si         28.620000   36.630000   23.520000 Si         1 MOL        2.1000 ****
1888 Si         31.260000   38.140000   23.520000 Si         1 MOL        2.1000 ****
1889 Si         29.500000   38.100000   18.060000 Si         1 MOL        2.1000 ****
1890 Si         32.140000   36.670000   18.060000 Si         1 MOL        2.1000 ****
1891 Si         32.140000   33.750000   18.060000 Si         1 MOL        2.1000 ****
1892 Si         29.500000   32.350000   18.060000 Si         1 MOL        2.1000 ****
1893  H         29.570000   30.970000   21.660000  H         1 MOL        0.4250 ****
1894  H         32.150000   34.930000   21.490000  H         1 MOL        0.4250 ****
1895  H         31.190000   39.570000   19.950000  H         1 MOL        0.4250 ****
1896  H         28.650000   35.240000   20.210000  H         1 MOL        0.4250 ****
1897  O         31.260000   30.830000   24.070000  O         1 MOL       -1.0500 ****
1898  O         29.940000   33.020000   24.070000  O         1 MOL       -1.0500 ****
1899  O         32.580000   33.070000   24.070000  O         1 MOL       -1.0500 ****
1900 Oh         28.620000   30.800000   21.850000  O         1 MOL       -0.9500 ****
1901Omg         31.260000   32.390000   21.850000  O         1 MOL       -1.1808 ****
1902Omg         28.620000   33.660000   21.850000  O         1 MOL       -1.1808 ****
1903  O         28.620000   35.200000   24.070000  O         1 MOL       -1.0500 ****
1904  O         32.580000   37.400000   24.070000  O         1 MOL       -1.0500 ****
1905  O         29.940000   37.390000   24.070000  O         1 MOL       -1.0500 ****
1906Ohmg         31.260000   35.210000   21.850000  O         1 MOL       -1.0809 ****
1907  O         28.620000   36.820000   21.850000  O         1 MOL       -1.0500 ****
1908  O         31.260000   38.060000   21.850000  O         1 MOL       -1.0500 ****
1909  O         29.500000   39.590000   17.510000  O         1 MOL       -1.0500 ****
1910  O         30.820000   37.340000   17.510000  O         1 MOL       -1.0500 ****
1911  O         28.180000   37.450000   17.510000  O         1 MOL       -1.0500 ****
1912 Oh         32.140000   39.460000   19.730000  O         1 MOL       -0.9500 ****
1913  O         29.500000   37.980000   19.730000  O         1 MOL       -1.0500 ****
1914  O         32.140000   36.740000   19.730000  O         1 MOL       -1.0500 ****
1915  O         32.140000   35.190000   17.510000  O         1 MOL       -1.0500 ****
1916  O         28.180000   33.010000   17.510000  O         1 MOL       -1.0500 ****
1917  O         30.820000   33.040000   17.510000  O         1 MOL       -1.0500 ****
1918Ohmg         29.500000   35.220000   19.730000  O         1 MOL       -1.0809 ****
1919Omg         32.140000   33.800000   19.730000  O         1 MOL       -1.1808 ****
1920Omg         29.500000   32.490000   19.730000  O         1 MOL       -1.1808 ****
@<TRIPOS>BOND
    1    13    20 1
    2    14    26 1
    3    15    32 1
    4    16    38 1
    5    53    60 1
    6    54    66 1
    7    55    72 1
    8    56    78 1
    9    93   100 1
   10    94   106 1
   11    95   112 1
   12    96   118 1
   13   133   140 1
   14   134   146 1
   15   135   152 1
   16   136   158 1
   17   173   180 1
   18   174   186 1
   19   175   192 1
   20   176   198 1
   21   213   220 1
   22   214   226 1
   23   215   232 1
   24   216   238 1
   25   253   260 1
   26   254   266 1
   27   255   272 1
   28   256   278 1
   29   293   300 1
   30   294   306 1
   31   295   312 1
   32   296   318 1
   33   333   340 1
   34   334   346 1
   35   335   352 1
   36   336   358 1
   37   373   380 1
   38   374   386 1
   39   375   392 1
   40   376   398 1
   41   413   420 1
   42   414   426 1
   43   415   432 1
   44   416   438 1
   45   453   460 1
   46   454   466 1
   47   455   472 1
   48   456   478 1
   49   493   500 1
   50   494   506 1
   51   495   512 1
   52   496   518 1
   53   533   540 1
   54   534   546 1
   55   535   552 1
   56   536   558 1
   57   573   580 1
   58   574   586 1
   59   575   592 1
   60   576   598 1
   61   613   620 1
   62   614   626 1
   63   615   632 1
   64   616   638 1
   65   653   660 1
   66   654   666 1
   67   655   672 1
   68   656   678 1
   69   693   700 1
   70   694   706 1
   71   695   712 1
   72   696   718 1
   73   733   740 1
   74   734   746 1
   75   735   752 1
   76   736   758 1
   77   773   780 1
   78   774   786 1
   79   775   792 1
   80   776   798 1
   81   813   820 1
   82   814   826 1
   83   815   832 1
   84   816   838 1
   85   853   860 1
   86   854   866 1
   87   855   872 1
   88   856   878 1
   89   893   900 1
   90   894   906 1
   91   895   912 1
   92   896   918 1
   93   933   940 1
   94   934   946 1
   95   935   952 1
   96   936   958 1
   97   973   980 1
   98   974   986 1
   99   975   992 1
  100   976   998 1
  101  1013  1020 1
  102  1014  1026 1
  103  1015  1032 1
  104  1016  1038 1
  105  1053  1060 1
  106  1054  1066 1
  107  1055  1072 1
  108  1056  1078 1
  109  1093  1100 1
  110  1094  1106 1
  111  1095  1112 1
  112  1096  1118 1
  113  1133  1140 1
  114  1134  1146 1
  115  1135  1152 1
  116  1136  1158 1
  117  1173  1180 1
  118  1174  1186 1
  119  1175  1192 1
  120  1176  1198 1
  121  1213  1220 1
  122  1214  1226 1
  123  1215  1232 1
  124  1216  1238 1
  125  1253  1260 1
  126  1254  1266 1
  127  1255  1272 1
  128  1256  1278 1
  129  1293  1300 1
  130  1294  1306 1
  131  1295  1312 1
  132  1296  1318 1
  133  1333  1340 1
  134  1334  1346 1
  135  1335  1352 1
  136  1336  1358 1
  137  1373  1380 1
  138  1374  1386 1
  139  1375  1392 1
  140  1376  1398 1
  141  1413  1420 1
  142  1414  1426 1
  143  1415  1432 1
  144  1416  1438 1
  145  1453  1460 1
  146  1454  1466 1
  147  1455  1472 1
  148  1456  1478 1
  149  1493  1500 1
  150  1494  1506 1
  151  1495  1512 1
  152  1496  1518 1
  153  1533  1540 1
  154  1534  1546 1
  155  1535  1552 1
  156  1536  1558 1
  157  1573  1580 1
  158  1574  1586 1
  159  1575  1592 1
  160  1576  1598 1
  161  1613  1620 1
  162  1614  1626 1
  163  1615  1632 1
  164  1616  1638 1
  165  1653  1660 1
  166  1654  1666 1
  167  1655  1672 1
  168  1656  1678 1
  169  1693  1700 1
  170  1694  1706 1
  171  1695  1712 1
  172  1696  1718 1
  173  1733  1740 1
  174  1734  1746 1
  175  1735  1752 1
  176  1736  1758 1
  177  1773  1780 1
  178  1774  1786 1
  179  1775  1792 1
  180  1776  1798 1
  181  1813  1820 1
  182  1814  1826 1
  183  1815  1832 1
  184  1816  1838 1
  185  1853  1860 1
  186  1854  1866 1
  187  1855  1872 1
  188  1856  1878 1
  189  1893  1900 1
  190  1894  1906 1
  191  1895  1912 1
  192  1896  1918 1
@<TRIPOS>SUBSTRUCTURE
      1  RES              1 ****               0 ****  ****

